download/pglib-opf-master/api/pglib_opf_case6515_rte__api.m
%%%%%%%%%%%%%%%%%%%%%%%%%%%%%%%%%%%%%%%%%%%%%%%%%%%%%%%%%%%%%%%%%%%%%%%%%%%
%%%%                                                                  %%%%%
%%%%    IEEE PES Power Grid Library - Optimal Power Flow - v19.05     %%%%%
%%%%          (https://github.com/power-grid-lib/pglib-opf)           %%%%%
%%%%             Benchmark Group - Active Power Increase              %%%%%
%%%%                         08 - May - 2019                          %%%%%
%%%%                                                                  %%%%%
%%%%%%%%%%%%%%%%%%%%%%%%%%%%%%%%%%%%%%%%%%%%%%%%%%%%%%%%%%%%%%%%%%%%%%%%%%%
function mpc = pglib_opf_case6515_rte__api
mpc.version = '2';
mpc.baseMVA = 100.0;

%% bus data
%	bus_i	type	Pd	Qd	Gs	Bs	area	Vm	Va	baseKV	zone	Vmax	Vmin
mpc.bus = [
	1	 1	 0.0	 0.0	 0.0	 0.0	 1	    0.94444	    0.00000	 45.0	 1	    1.00000	    0.88889;
	2	 1	 0.0	 0.0	 0.0	 0.0	 1	    1.00000	    0.00000	 63.0	 1	    1.06349	    0.93651;
	3	 1	 17.28	 3.80	 0.0	 0.0	 1	    1.01588	    0.00000	 63.0	 1	    1.07937	    0.95238;
	4	 1	 57.91	 2.80	 0.0	 0.0	 1	    1.01111	    0.00000	 90.0	 1	    1.08889	    0.93333;
	5	 1	 15.06	 0.90	 0.0	 0.0	 1	    1.00794	    0.00000	 63.0	 1	    1.06349	    0.95238;
	6	 1	 15.18	 5.30	 0.0	 0.0	 1	    1.00000	    0.00000	 63.0	 1	    1.07937	    0.92063;
	7	 1	 2.69	 0.20	 0.0	 0.0	 1	    1.00000	    0.00000	 63.0	 1	    1.07937	    0.92063;
	8	 1	 15.80	 -0.30	 0.0	 0.0	 1	    0.98889	    0.00000	 225.0	 1	    1.08889	    0.88889;
	9	 1	 14.90	 0.00	 0.0	 0.0	 1	    1.00000	    0.00000	 63.0	 1	    1.06349	    0.93651;
	10	 1	 0.0	 0.0	 0.0	 0.0	 1	    1.00000	    0.00000	 90.0	 1	    1.07778	    0.92222;
	11	 1	 38.77	 4.90	 0.0	 0.0	 1	    1.00000	    0.00000	 90.0	 1	    1.07778	    0.92222;
	12	 1	 0.0	 0.0	 0.0	 0.0	 1	    1.01588	    0.00000	 63.0	 1	    1.07937	    0.95238;
	13	 1	 0.0	 0.0	 0.0	 0.0	 1	    1.07767	    0.00000	 380.0	 1	    1.10263	    1.05271;
	14	 1	 73.79	 13.30	 0.0	 30.4	 1	    1.02778	    0.00000	 90.0	 1	    1.07778	    0.97778;
	15	 1	 0.0	 0.0	 0.0	 0.0	 1	    1.00000	    0.00000	 63.0	 1	    1.07937	    0.92063;
	16	 1	 16.23	 1.90	 0.0	 0.0	 1	    1.00000	    0.00000	 63.0	 1	    1.07937	    0.92063;
	17	 1	 12.73	 0.10	 0.0	 0.0	 1	    1.02222	    0.00000	 90.0	 1	    1.06667	    0.97778;
	18	 1	 0.0	 0.0	 0.0	 0.0	 1	    0.94444	    0.00000	 45.0	 1	    1.00000	    0.88889;
	19	 1	 1.00	 0.00	 0.0	 0.0	 1	    1.00000	    0.00000	 63.0	 1	    1.06349	    0.93651;
	20	 1	 5.60	 -18.00	 0.0	 0.0	 1	    0.94444	    0.00000	 45.0	 1	    1.00000	    0.88889;
	21	 1	 7.60	 -1.60	 0.0	 0.0	 1	    1.02222	    0.00000	 90.0	 1	    1.06667	    0.97778;
	22	 1	 21.60	 1.00	 0.0	 0.0	 1	    1.01588	    0.00000	 63.0	 1	    1.07937	    0.95238;
	23	 1	 26.15	 2.20	 0.0	 0.0	 1	    1.00000	    0.00000	 63.0	 1	    1.06349	    0.93651;
	24	 1	 17.00	 -1.50	 0.0	 0.0	 1	    1.03333	    0.00000	 90.0	 1	    1.11111	    0.95556;
	25	 1	 54.70	 -1.10	 0.0	 0.0	 1	    1.02222	    0.00000	 90.0	 1	    1.10000	    0.94444;
	26	 1	 17.63	 10.60	 0.0	 0.0	 1	    1.02222	    0.00000	 90.0	 1	    1.06667	    0.97778;
	27	 1	 0.0	 0.0	 0.0	 0.0	 1	    1.04444	    0.00000	 225.0	 1	    1.08444	    1.00444;
	28	 1	 0.90	 -0.20	 0.0	 0.0	 1	    1.01588	    0.00000	 63.0	 1	    1.07937	    0.95238;
	29	 1	 89.32	 9.40	 0.0	 0.0	 1	    1.01587	    0.00000	 63.0	 1	    1.06349	    0.96825;
	30	 1	 46.59	 3.50	 0.0	 0.0	 1	    1.01111	    0.00000	 90.0	 1	    1.08889	    0.93333;
	31	 1	 0.0	 0.0	 0.0	 0.0	 1	    1.00000	    0.00000	 63.0	 1	    1.06349	    0.93651;
	32	 1	 0.0	 0.0	 0.0	 0.0	 1	    1.00334	    0.00000	 150.0	 1	    1.10667	    0.90000;
	33	 1	 0.0	 0.0	 0.0	 0.0	 1	    1.01111	    0.00000	 225.0	 1	    1.08889	    0.93333;
	34	 1	 0.0	 0.0	 0.0	 0.0	 1	    1.01111	    0.00000	 225.0	 1	    1.08889	    0.93333;
	35	 1	 0.0	 0.0	 0.0	 0.0	 1	    1.07237	    0.00000	 380.0	 1	    1.10526	    1.03947;
	36	 1	 0.0	 0.0	 0.0	 0.0	 1	    1.07237	    0.00000	 380.0	 1	    1.10526	    1.03947;
	37	 1	 -2.70	 3.00	 0.0	 0.0	 1	    1.00000	    0.00000	 63.0	 1	    1.07937	    0.92063;
	38	 1	 5.00	 -1.00	 0.0	 0.0	 1	    1.01587	    0.00000	 63.0	 1	    1.09524	    0.93651;
	39	 1	 43.60	 -2.90	 0.0	 0.0	 1	    1.02778	    0.00000	 90.0	 1	    1.07778	    0.97778;
	40	 1	 44.49	 4.10	 0.0	 0.0	 1	    1.02778	    0.00000	 90.0	 1	    1.07778	    0.97778;
	41	 1	 0.0	 0.0	 0.0	 0.0	 1	    1.04666	    0.00000	 225.0	 1	    1.08889	    1.00444;
	42	 1	 0.0	 0.0	 0.0	 0.0	 1	    1.04169	    0.00000	 63.0	 1	    1.13099	    0.95238;
	43	 1	 3.74	 2.70	 0.0	 0.0	 1	    1.02778	    0.00000	 90.0	 1	    1.07778	    0.97778;
	44	 1	 15.53	 0.10	 0.0	 0.0	 1	    1.00794	    0.00000	 63.0	 1	    1.06349	    0.95238;
	45	 1	 4.44	 1.60	 0.0	 0.0	 1	    1.02222	    0.00000	 90.0	 1	    1.06667	    0.97778;
	46	 1	 0.0	 0.0	 0.0	 0.0	 1	    1.00000	    0.00000	 63.0	 1	    1.06349	    0.93651;
	47	 2	 0.0	 0.0	 0.0	 0.0	 1	    1.00000	    0.00000	 63.0	 1	    1.06349	    0.93651;
	48	 1	 47.17	 5.60	 0.0	 0.0	 1	    1.00000	    0.00000	 90.0	 1	    1.07778	    0.92222;
	49	 1	 9.80	 -1.90	 0.0	 0.0	 1	    1.00000	    0.00000	 63.0	 1	    1.06349	    0.93651;
	50	 1	 0.0	 0.0	 0.0	 0.0	 1	    1.00289	    0.00000	 63.0	 1	    1.06927	    0.93651;
	51	 1	 0.0	 0.0	 0.0	 0.0	 1	    1.01111	    0.00000	 225.0	 1	    1.08889	    0.93333;
	52	 1	 7.59	 2.90	 0.0	 0.0	 1	    1.02222	    0.00000	 90.0	 1	    1.06667	    0.97778;
	53	 1	 0.00	 -1.30	 0.0	 0.0	 1	    1.00000	    0.00000	 63.0	 1	    1.04762	    0.95238;
	54	 1	 0.30	 -0.30	 0.0	 0.0	 1	    1.02222	    0.00000	 90.0	 1	    1.06667	    0.97778;
	55	 1	 59.43	 12.30	 0.0	 0.0	 1	    1.04666	    0.00000	 225.0	 1	    1.08889	    1.00444;
	56	 1	 88.16	 20.50	 0.0	 0.0	 1	    1.04666	    0.00000	 225.0	 1	    1.08889	    1.00444;
	57	 2	 0.0	 0.0	 0.0	 0.0	 1	    1.00000	    0.00000	 63.0	 1	    1.07937	    0.92063;
	58	 1	 179.81	 36.40	 0.0	 0.0	 1	    1.04666	    0.00000	 225.0	 1	    1.08889	    1.00444;
	59	 1	 5.84	 1.00	 0.0	 0.0	 1	    1.01588	    0.00000	 63.0	 1	    1.07937	    0.95238;
	60	 1	 0.0	 0.0	 0.0	 0.0	 1	    1.01588	    0.00000	 63.0	 1	    1.07937	    0.95238;
	61	 1	 54.06	 11.90	 0.0	 0.0	 1	    1.01588	    0.00000	 63.0	 1	    1.07937	    0.95238;
	62	 1	 0.0	 0.0	 0.0	 0.0	 1	    1.01588	    0.00000	 63.0	 1	    1.07937	    0.95238;
	63	 1	 19.62	 2.90	 0.0	 0.0	 1	    1.01588	    0.00000	 63.0	 1	    1.07937	    0.95238;
	64	 1	 78.58	 7.10	 0.0	 0.0	 1	    0.98889	    0.00000	 225.0	 1	    1.08889	    0.88889;
	65	 1	 14.01	 2.80	 0.0	 0.0	 1	    1.01588	    0.00000	 63.0	 1	    1.07937	    0.95238;
	66	 1	 13.00	 -6.40	 0.0	 0.0	 1	    1.00000	    0.00000	 63.0	 1	    1.06349	    0.93651;
	67	 1	 1.00	 0.00	 0.0	 0.0	 1	    1.00000	    0.00000	 63.0	 1	    1.07937	    0.92063;
	68	 1	 62.00	 1.10	 0.0	 0.0	 1	    1.00000	    0.00000	 63.0	 1	    1.06349	    0.93651;
	69	 1	 24.29	 1.30	 0.0	 0.0	 1	    1.00794	    0.00000	 63.0	 1	    1.06349	    0.95238;
	70	 1	 12.38	 4.20	 0.0	 0.0	 1	    1.01588	    0.00000	 63.0	 1	    1.07937	    0.95238;
	71	 1	 81.03	 17.50	 0.0	 0.0	 1	    1.00000	    0.00000	 63.0	 1	    1.04762	    0.95238;
	72	 1	 0.0	 0.0	 0.0	 0.0	 1	    1.04666	    0.00000	 225.0	 1	    1.08889	    1.00444;
	73	 1	 0.0	 0.0	 0.0	 0.0	 1	    1.04666	    0.00000	 225.0	 1	    1.08889	    1.00444;
	74	 1	 58.80	 -5.00	 0.0	 0.0	 1	    0.98889	    0.00000	 225.0	 1	    1.08889	    0.88889;
	75	 1	 29.42	 1.90	 0.0	 0.0	 1	    1.02222	    0.00000	 90.0	 1	    1.06667	    0.97778;
	76	 1	 5.90	 -2.10	 0.0	 0.0	 1	    1.03778	    0.00000	 225.0	 1	    1.08889	    0.98667;
	77	 1	 51.03	 0.40	 0.0	 0.0	 1	    1.00000	    0.00000	 63.0	 1	    1.06349	    0.93651;
	78	 1	 0.0	 0.0	 0.0	 0.0	 1	    1.00000	    0.00000	 63.0	 1	    1.07937	    0.92063;
	79	 1	 0.0	 0.0	 0.0	 0.0	 1	    1.00000	    0.00000	 63.0	 1	    1.04762	    0.95238;
	80	 1	 37.83	 10.50	 0.0	 0.0	 1	    1.04666	    0.00000	 225.0	 1	    1.08889	    1.00444;
	81	 1	 37.83	 9.10	 0.0	 0.0	 1	    1.04666	    0.00000	 225.0	 1	    1.08889	    1.00444;
	82	 1	 13.19	 0.30	 0.0	 0.0	 1	    1.00000	    0.00000	 63.0	 1	    1.06349	    0.93651;
	83	 1	 92.24	 24.80	 0.0	 0.0	 1	    1.04666	    0.00000	 225.0	 1	    1.08889	    1.00444;
	84	 1	 -0.10	 0.40	 0.0	 0.0	 1	    1.00000	    0.00000	 63.0	 1	    1.06349	    0.93651;
	85	 1	 0.70	 -1.50	 0.0	 0.0	 1	    1.00000	    0.00000	 63.0	 1	    1.06349	    0.93651;
	86	 1	 56.98	 5.20	 0.0	 0.0	 1	    1.02222	    0.00000	 90.0	 1	    1.06667	    0.97778;
	87	 1	 0.0	 0.0	 0.0	 0.0	 1	    1.01588	    0.00000	 63.0	 1	    1.07937	    0.95238;
	88	 1	 14.80	 -1.20	 0.0	 0.0	 1	    1.00000	    0.00000	 63.0	 1	    1.06349	    0.93651;
	89	 1	 30.59	 0.30	 0.0	 0.0	 1	    1.02778	    0.00000	 90.0	 1	    1.07778	    0.97778;
	90	 1	 0.20	 -2.30	 0.0	 0.0	 1	    0.94444	    0.00000	 45.0	 1	    1.00000	    0.88889;
	91	 1	 0.0	 0.0	 0.0	 0.0	 1	    0.94444	    0.00000	 45.0	 1	    1.00000	    0.88889;
	92	 1	 37.13	 1.10	 0.0	 0.0	 1	    1.01587	    0.00000	 63.0	 1	    1.06349	    0.96825;
	93	 1	 2.00	 -2.80	 0.0	 0.0	 1	    0.94444	    0.00000	 45.0	 1	    1.00000	    0.88889;
	94	 1	 18.20	 -4.00	 0.0	 0.0	 1	    1.02222	    0.00000	 90.0	 1	    1.06667	    0.97778;
	95	 1	 66.79	 9.40	 0.0	 0.0	 1	    1.02222	    0.00000	 90.0	 1	    1.06667	    0.97778;
	96	 1	 0.90	 -0.20	 0.0	 0.0	 1	    1.00000	    0.00000	 63.0	 1	    1.06349	    0.93651;
	97	 1	 67.37	 3.80	 0.0	 0.0	 1	    1.00000	    0.00000	 63.0	 1	    1.07937	    0.92063;
	98	 1	 11.09	 1.00	 0.0	 0.0	 1	    1.01588	    0.00000	 63.0	 1	    1.07937	    0.95238;
	99	 1	 41.80	 5.90	 0.0	 0.0	 1	    1.01588	    0.00000	 63.0	 1	    1.07937	    0.95238;
	100	 1	 73.56	 7.80	 0.0	 0.0	 1	    1.00000	    0.00000	 63.0	 1	    1.06349	    0.93651;
	101	 1	 17.30	 -0.80	 0.0	 0.0	 1	    1.00000	    0.00000	 63.0	 1	    1.06349	    0.93651;
	102	 2	 0.0	 0.0	 0.0	 0.0	 1	    1.01588	    0.00000	 63.0	 1	    1.07937	    0.95238;
	103	 1	 12.60	 -1.20	 0.0	 0.0	 1	    1.01588	    0.00000	 63.0	 1	    1.07937	    0.95238;
	104	 1	 0.0	 0.0	 0.0	 0.0	 1	    1.03778	    0.00000	 225.0	 1	    1.08889	    0.98667;
	105	 1	 43.09	 2.20	 0.0	 0.0	 1	    0.98889	    0.00000	 225.0	 1	    1.08889	    0.88889;
	106	 1	 67.96	 10.70	 0.0	 0.0	 1	    1.02222	    0.00000	 90.0	 1	    1.10000	    0.94444;
	107	 1	 124.94	 14.30	 0.0	 0.0	 1	    1.04666	    0.00000	 225.0	 1	    1.08444	    1.00889;
	108	 1	 12.20	 -2.40	 0.0	 0.0	 1	    1.02778	    0.00000	 90.0	 1	    1.07778	    0.97778;
	109	 1	 79.17	 8.70	 0.0	 0.0	 1	    1.00000	    0.00000	 63.0	 1	    1.06349	    0.93651;
	110	 1	 0.0	 0.0	 0.0	 0.0	 1	    1.01111	    0.00000	 225.0	 1	    1.08889	    0.93333;
	111	 1	 38.70	 -7.50	 0.0	 0.0	 1	    1.01587	    0.00000	 63.0	 1	    1.06349	    0.96825;
	112	 1	 0.0	 0.0	 0.0	 0.0	 1	    1.00000	    0.00000	 63.0	 1	    1.04762	    0.95238;
	113	 1	 0.0	 0.0	 0.0	 0.0	 1	    1.04666	    0.00000	 225.0	 1	    1.08889	    1.00444;
	114	 1	 15.65	 1.10	 0.0	 0.0	 1	    1.00000	    0.00000	 63.0	 1	    1.06349	    0.93651;
	115	 1	 0.0	 0.0	 0.0	 0.0	 1	    1.07895	    0.00000	 380.0	 1	    1.10526	    1.05263;
	116	 1	 0.0	 0.0	 0.0	 0.0	 1	    1.07895	    0.00000	 380.0	 1	    1.10526	    1.05263;
	117	 1	 17.40	 0.20	 0.0	 0.0	 1	    1.01588	    0.00000	 63.0	 1	    1.07937	    0.95238;
	118	 1	 2.34	 0.70	 0.0	 0.0	 1	    1.02222	    0.00000	 90.0	 1	    1.06667	    0.97778;
	119	 1	 47.41	 6.90	 0.0	 0.0	 1	    1.00000	    0.00000	 63.0	 1	    1.06349	    0.93651;
	120	 1	 22.00	 -2.30	 0.0	 0.0	 1	    1.00000	    0.00000	 63.0	 1	    1.06349	    0.93651;
	121	 1	 24.29	 1.40	 0.0	 0.0	 1	    1.00000	    0.00000	 63.0	 1	    1.07937	    0.92063;
	122	 2	 0.0	 0.0	 0.0	 0.0	 1	    1.01588	    0.00000	 63.0	 1	    1.07937	    0.95238;
	123	 1	 14.01	 4.60	 0.0	 0.0	 1	    1.01588	    0.00000	 63.0	 1	    1.07937	    0.95238;
	124	 1	 8.00	 -0.40	 0.0	 0.0	 1	    1.02222	    0.00000	 90.0	 1	    1.06667	    0.97778;
	125	 1	 12.96	 0.40	 0.0	 0.0	 1	    1.01588	    0.00000	 63.0	 1	    1.07937	    0.95238;
	126	 1	 0.23	 0.80	 0.0	 0.0	 1	    1.00000	    0.00000	 63.0	 1	    1.06349	    0.93651;
	127	 1	 17.16	 2.70	 0.0	 0.0	 1	    1.00000	    0.00000	 63.0	 1	    1.04762	    0.95238;
	128	 1	 16.11	 7.20	 0.0	 0.0	 1	    1.01587	    0.00000	 63.0	 1	    1.06349	    0.96825;
	129	 1	 22.30	 10.80	 0.0	 0.0	 1	    1.01587	    0.00000	 63.0	 1	    1.06349	    0.96825;
	130	 1	 0.0	 0.0	 0.0	 0.0	 1	    1.04666	    0.00000	 225.0	 1	    1.08444	    1.00889;
	131	 1	 139.30	 12.00	 0.0	 0.0	 1	    1.04666	    0.00000	 225.0	 1	    1.08444	    1.00889;
	132	 2	 9.40	 0.00	 0.0	 0.0	 1	    1.00000	    0.00000	 90.0	 1	    1.07778	    0.92222;
	133	 1	 3.15	 0.40	 0.0	 0.0	 1	    1.00000	    0.00000	 63.0	 1	    1.04762	    0.95238;
	134	 1	 118.05	 27.40	 0.0	 0.0	 1	    1.04666	    0.00000	 225.0	 1	    1.08889	    1.00444;
	135	 1	 0.0	 0.0	 0.0	 0.0	 1	    1.04666	    0.00000	 225.0	 1	    1.08889	    1.00444;
	136	 1	 27.91	 1.40	 0.0	 0.0	 1	    1.02778	    0.00000	 90.0	 1	    1.07778	    0.97778;
	137	 2	 8.70	 -3.00	 0.0	 0.0	 1	    1.01587	    0.00000	 63.0	 1	    1.06349	    0.96825;
	138	 1	 0.0	 0.0	 0.0	 0.0	 1	    1.02333	    0.00000	 150.0	 1	    1.08000	    0.96667;
	139	 1	 9.34	 7.10	 0.0	 0.0	 1	    1.00000	    0.00000	 63.0	 1	    1.07937	    0.92063;
	140	 1	 0.0	 0.0	 0.0	 80.0	 1	    1.04445	    0.00000	 225.0	 1	    1.08889	    1.00000;
	141	 1	 0.0	 0.0	 0.0	 0.0	 1	    1.07895	    0.00000	 380.0	 1	    1.10526	    1.05263;
	142	 1	 26.15	 7.40	 0.0	 0.0	 1	    1.01588	    0.00000	 63.0	 1	    1.07937	    0.95238;
	143	 1	 0.0	 0.0	 0.0	 0.0	 1	    1.03778	    0.00000	 225.0	 1	    1.08889	    0.98667;
	144	 1	 18.68	 5.00	 0.0	 0.0	 1	    1.03333	    0.00000	 90.0	 1	    1.11111	    0.95556;
	145	 1	 27.32	 9.00	 0.0	 0.0	 1	    1.02889	    0.00000	 225.0	 1	    1.08889	    0.96889;
	146	 1	 0.0	 0.0	 0.0	 0.0	 1	    1.05263	    0.00000	 380.0	 1	    1.10526	    1.00000;
	147	 1	 35.03	 5.50	 0.0	 0.0	 1	    1.00000	    0.00000	 63.0	 1	    1.06349	    0.93651;
	148	 1	 7.71	 1.20	 0.0	 0.0	 1	    1.00000	    0.00000	 63.0	 1	    1.06349	    0.93651;
	149	 1	 19.73	 4.10	 0.0	 0.0	 1	    1.02222	    0.00000	 90.0	 1	    1.06667	    0.97778;
	150	 1	 56.63	 3.20	 0.0	 0.0	 1	    1.00000	    0.00000	 63.0	 1	    1.06349	    0.93651;
	151	 1	 0.0	 0.0	 0.0	 0.0	 1	    1.01587	    0.00000	 63.0	 1	    1.06349	    0.96825;
	152	 1	 52.89	 12.00	 0.0	 7.7	 1	    1.01587	    0.00000	 63.0	 1	    1.06349	    0.96825;
	153	 1	 27.30	 -5.50	 0.0	 0.0	 1	    1.00000	    0.00000	 63.0	 1	    1.06349	    0.93651;
	154	 1	 0.0	 0.0	 0.0	 0.0	 1	    1.01111	    0.00000	 225.0	 1	    1.08889	    0.93333;
	155	 2	 0.0	 0.0	 0.0	 0.0	 1	    1.00000	    0.00000	 63.0	 1	    1.07937	    0.92063;
	156	 1	 0.0	 0.0	 0.0	 0.0	 1	    1.01587	    0.00000	 63.0	 1	    1.06349	    0.96825;
	157	 1	 0.00	 -2.20	 0.0	 0.0	 1	    0.94444	    0.00000	 45.0	 1	    1.00000	    0.88889;
	158	 2	 0.0	 0.0	 0.0	 0.0	 1	    0.94444	    0.00000	 45.0	 1	    1.00000	    0.88889;
	159	 1	 0.0	 0.0	 0.0	 0.0	 1	    1.00000	    0.00000	 63.0	 1	    1.06349	    0.93651;
	160	 1	 48.69	 5.90	 0.0	 0.0	 1	    0.98889	    0.00000	 225.0	 1	    1.08889	    0.88889;
	161	 1	 51.03	 10.00	 0.0	 0.0	 1	    0.98889	    0.00000	 225.0	 1	    1.08889	    0.88889;
	162	 1	 -0.30	 -1.60	 0.0	 0.0	 1	    1.02222	    0.00000	 90.0	 1	    1.06667	    0.97778;
	163	 1	 0.0	 0.0	 0.0	 0.0	 1	    1.01588	    0.00000	 63.0	 1	    1.07937	    0.95238;
	164	 1	 0.0	 0.0	 0.0	 0.0	 1	    1.01588	    0.00000	 63.0	 1	    1.07937	    0.95238;
	165	 1	 19.27	 14.60	 0.0	 0.0	 1	    0.97500	    0.00000	 20.0	 1	    1.15000	    0.80000;
	166	 1	 15.53	 3.20	 0.0	 0.0	 1	    1.02222	    0.00000	 90.0	 1	    1.06667	    0.97778;
	167	 1	 17.80	 -0.80	 0.0	 0.0	 1	    1.02222	    0.00000	 90.0	 1	    1.06667	    0.97778;
	168	 1	 0.0	 0.0	 0.0	 0.0	 1	    1.04444	    0.00000	 225.0	 1	    1.08444	    1.00444;
	169	 1	 9.90	 -0.90	 0.0	 0.0	 1	    1.02222	    0.00000	 90.0	 1	    1.06667	    0.97778;
	170	 1	 93.18	 13.50	 0.0	 0.0	 1	    1.02778	    0.00000	 90.0	 1	    1.07778	    0.97778;
	171	 1	 32.69	 0.80	 0.0	 30.0	 1	    1.02778	    0.00000	 90.0	 1	    1.07778	    0.97778;
	172	 1	 0.0	 0.0	 0.0	 0.0	 1	    1.04666	    0.00000	 225.0	 1	    1.08889	    1.00444;
	173	 1	 33.28	 8.00	 0.0	 0.0	 1	    1.01111	    0.00000	 90.0	 1	    1.08889	    0.93333;
	174	 1	 69.71	 11.60	 0.0	 0.0	 1	    1.03333	    0.00000	 90.0	 1	    1.11111	    0.95556;
	175	 1	 0.0	 0.0	 0.0	 0.0	 1	    1.00000	    0.00000	 63.0	 1	    1.07937	    0.92063;
	176	 2	 0.0	 0.0	 0.0	 0.0	 1	    1.00000	    0.00000	 150.0	 1	    1.10000	    0.90000;
	177	 1	 0.0	 0.0	 0.0	 0.0	 1	    1.04666	    0.00000	 225.0	 1	    1.08889	    1.00444;
	178	 1	 0.0	 0.0	 0.0	 0.0	 1	    1.04666	    0.00000	 225.0	 1	    1.08889	    1.00444;
	179	 1	 0.0	 0.0	 0.0	 0.0	 1	    1.00000	    0.00000	 63.0	 1	    1.04762	    0.95238;
	180	 1	 0.0	 0.0	 0.0	 0.0	 1	    1.04666	    0.00000	 225.0	 1	    1.08889	    1.00444;
	181	 1	 12.70	 -5.30	 0.0	 0.0	 1	    1.00000	    0.00000	 63.0	 1	    1.07937	    0.92063;
	182	 1	 18.68	 3.10	 0.0	 0.0	 1	    1.00000	    0.00000	 63.0	 1	    1.06349	    0.93651;
	183	 1	 5.50	 -1.70	 0.0	 0.0	 1	    1.01588	    0.00000	 63.0	 1	    1.07937	    0.95238;
	184	 1	 5.84	 1.40	 0.0	 0.0	 1	    1.02778	    0.00000	 90.0	 1	    1.07778	    0.97778;
	185	 1	 35.73	 2.70	 0.0	 0.0	 1	    1.01588	    0.00000	 63.0	 1	    1.07937	    0.95238;
	186	 1	 1.40	 0.20	 0.0	 0.0	 1	    1.02222	    0.00000	 90.0	 1	    1.06667	    0.97778;
	187	 2	 0.0	 0.0	 0.0	 0.0	 1	    1.00000	    0.00000	 63.0	 1	    1.07937	    0.92063;
	188	 1	 0.0	 0.0	 0.0	 0.0	 1	    1.00969	    0.00000	 63.0	 1	    1.09875	    0.92063;
	189	 1	 19.62	 1.80	 0.0	 0.0	 1	    1.00000	    0.00000	 63.0	 1	    1.07937	    0.92063;
	190	 2	 0.0	 0.0	 0.0	 0.0	 1	    0.94444	    0.00000	 45.0	 1	    1.00000	    0.88889;
	191	 1	 15.40	 -1.10	 0.0	 0.0	 1	    1.02222	    0.00000	 90.0	 1	    1.06667	    0.97778;
	192	 1	 9.90	 -0.00	 0.0	 0.0	 1	    1.00000	    0.00000	 63.0	 1	    1.07937	    0.92063;
	193	 1	 0.12	 0.70	 0.0	 0.0	 1	    1.04666	    0.00000	 225.0	 1	    1.08889	    1.00444;
	194	 2	 0.70	 -1.60	 0.0	 0.0	 1	    1.00000	    0.00000	 63.0	 1	    1.07937	    0.92063;
	195	 1	 0.0	 0.0	 0.0	 0.0	 1	    1.00800	    0.00000	 63.0	 1	    1.06362	    0.95238;
	196	 1	 0.0	 0.0	 0.0	 0.0	 1	    1.00800	    0.00000	 63.0	 1	    1.06362	    0.95238;
	197	 1	 27.50	 -0.60	 0.0	 15.0	 1	    1.00000	    0.00000	 63.0	 1	    1.07937	    0.92063;
	198	 1	 11.10	 -0.80	 0.0	 0.0	 1	    1.00000	    0.00000	 63.0	 1	    1.07937	    0.92063;
	199	 1	 14.71	 2.70	 0.0	 0.0	 1	    1.02222	    0.00000	 90.0	 1	    1.06667	    0.97778;
	200	 1	 0.0	 0.0	 0.0	 0.0	 1	    1.04445	    0.00000	 225.0	 1	    1.08889	    1.00000;
...
];

%% generator data
%	bus	Pg	Qg	Qmax	Qmin	Vg	mBase	status	Pmax	Pmin
mpc.gen = [
	4	 0.0	 0.0	 84.0	 -84.0	 1.01111	 100.0	 0	 167	 0.0; % NG
	4	 0.0	 0.0	 38.0	 -38.0	 1.01111	 100.0	 0	 75	 0.0; % NG
	5	 0.0	 0.0	 22.0	 -22.0	 1.00794	 100.0	 0	 44	 0.0; % COW
	11	 132.5	 0.0	 133.0	 -133.0	 1.0	 100.0	 1	 265	 0.0; % NG
	11	 0.0	 0.0	 24.0	 -24.0	 1.0	 100.0	 0	 47	 0.0; % NG
	17	 0.0	 0.0	 17.0	 -17.0	 1.02222	 100.0	 0	 34	 0.0; % NG
	19	 0.0	 0.0	 40.0	 -40.0	 1.0	 100.0	 0	 79	 0.0; % NG
	22	 0.0	 0.0	 23.0	 -23.0	 1.01588	 100.0	 0	 46	 0.0; % PEL
	24	 0.0	 0.0	 115.0	 -115.0	 1.03333	 100.0	 0	 230	 0.0; % COW
	24	 0.0	 0.0	 4.0	 -4.0	 1.03333	 100.0	 0	 7	 0.0; % PEL
	25	 313.5	 0.0	 314.0	 -314.0	 1.02222	 100.0	 1	 627	 0.0; % NG
	25	 0.0	 0.0	 15.0	 -15.0	 1.02222	 100.0	 0	 29	 0.0; % PEL
	40	 0.0	 0.0	 63.0	 -63.0	 1.02778	 100.0	 0	 125	 0.0; % NG
	47	 73.5	 0.0	 74.0	 -74.0	 1.0	 100.0	 1	 147	 0.0; % NG
	47	 33.0	 0.0	 33.0	 -33.0	 1.0	 100.0	 1	 66	 0.0; % PEL
	48	 0.0	 0.0	 65.0	 -65.0	 1.0	 100.0	 0	 130	 0.0; % NG
	48	 0.0	 0.0	 34.0	 -34.0	 1.0	 100.0	 0	 68	 0.0; % NG
	57	 30.0	 0.0	 34.8	 -34.8	 1.0	 100.0	 1	 60	 0.0; % COW
	64	 0.0	 0.0	 137.0	 -137.0	 0.98889	 100.0	 0	 273	 0.0; % NG
	64	 0.0	 0.0	 56.0	 -56.0	 0.98889	 100.0	 0	 112	 0.0; % NG
	69	 0.0	 0.0	 26.0	 -26.0	 1.00794	 100.0	 0	 52	 0.0; % NG
	70	 0.0	 0.0	 16.0	 -16.0	 1.01588	 100.0	 0	 31	 0.0; % PEL
	85	 0.0	 0.0	 13.0	 -13.0	 1.0	 100.0	 0	 26	 0.0; % PEL
	86	 0.0	 0.0	 136.0	 -136.0	 1.02222	 100.0	 0	 271	 0.0; % NG
	102	 120.5	 0.0	 397.2	 -397.2	 1.01588	 100.0	 1	 241	 0.0; % NG
	122	 358.0	 0.0	 358.0	 -358.0	 1.01588	 100.0	 1	 716	 0.0; % COW
	124	 0.0	 0.0	 8.0	 -8.0	 1.02222	 100.0	 0	 16	 0.0; % NG
	125	 42.5	 0.0	 43.0	 -43.0	 1.01588	 100.0	 1	 85	 0.0; % PEL
	125	 85.5	 0.0	 86.0	 -86.0	 1.01588	 100.0	 1	 171	 0.0; % COW
	132	 2.0	 0.0	 872.4	 -872.4	 1.0	 100.0	 1	 4	 0.0; % NG
	132	 0.0	 0.8	 38.0	 -38.0	 1.0	 100.0	 0	 75	 0.0; % NG
	132	 0.0	 0.8	 80.0	 -80.0	 1.0	 100.0	 0	 159	 0.0; % COW
	132	 0.0	 0.8	 13.0	 -13.0	 1.0	 100.0	 0	 26	 0.0; % NG
	137	 0.0	 -0.2	 94.0	 -94.0	 1.01587	 100.0	 0	 187	 0.0; % NG
	137	 72.0	 0.0	 72.0	 -72.0	 1.01587	 100.0	 1	 144	 0.0; % PEL
	155	 0.0	 0.47	 41.0	 -41.0	 1.0	 100.0	 0	 82	 0.0; % PEL
	158	 44.5	 0.0	 45.0	 -45.0	 0.94444	 100.0	 1	 89	 0.0; % PEL
	158	 104.5	 0.0	 105.0	 -105.0	 0.94444	 100.0	 1	 209	 0.0; % PEL
	176	 0.0	 0.78	 15.0	 -15.0	 1.0	 100.0	 0	 29	 0.0; % PEL
	187	 0.0	 1.92	 87.0	 -87.0	 1.0	 100.0	 0	 174	 0.0; % NG
	187	 0.0	 1.91	 216.0	 -216.0	 1.0	 100.0	 0	 431	 0.0; % NG
	190	 0.0	 -0.37	 32.0	 -32.0	 0.94444	 100.0	 0	 63	 0.0; % PEL
	192	 26.0	 0.0	 26.0	 -26.0	 1.0	 100.0	 1	 52	 0.0; % NG
	194	 116.5	 0.0	 117.0	 -117.0	 1.0	 100.0	 1	 233	 0.0; % COW
	194	 51.0	 0.0	 51.0	 -51.0	 1.0	 100.0	 1	 102	 0.0; % NG
	217	 0.0	 0.0	 36.0	 -36.0	 1.02222	 100.0	 0	 72	 0.0; % NG
	224	 0.0	 0.79	 195.0	 -195.0	 1.0	 100.0	 0	 389	 0.0; % NG
	227	 0.0	 0.0	 25.0	 -25.0	 1.00794	 100.0	 0	 50	 0.0; % COW
	236	 0.0	 0.0	 51.0	 -51.0	 1.0	 100.0	 0	 102	 0.0; % PEL
	236	 0.0	 0.0	 71.0	 -71.0	 1.0	 100.0	 0	 142	 0.0; % PEL
	238	 0.0	 0.0	 3.0	 -3.0	 1.02222	 100.0	 0	 6	 0.0; % PEL
	238	 64.0	 0.0	 72.0	 -72.0	 1.02222	 100.0	 1	 128	 0.0; % PEL
	246	 0.0	 0.0	 49.0	 -49.0	 1.0	 100.0	 0	 98	 0.0; % PEL
	246	 0.0	 -0.31	 22.0	 -22.0	 1.0	 100.0	 0	 44	 0.0; % NG
	246	 0.0	 -0.31	 34.0	 -34.0	 1.0	 100.0	 0	 67	 0.0; % PEL
	246	 0.0	 -0.31	 23.0	 -23.0	 1.0	 100.0	 0	 46	 0.0; % NG
	256	 30.5	 0.0	 50.4	 -50.4	 1.0	 100.0	 1	 61	 0.0; % PEL
	256	 28.0	 0.0	 50.4	 -50.4	 1.0	 100.0	 1	 56	 0.0; % NG
	258	 2.5	 0.0	 74.4	 -74.4	 1.0	 100.0	 1	 5	 0.0; % NG
	261	 0.0	 1.78	 330.0	 -330.0	 1.0	 100.0	 0	 659	 0.0; % COW
	269	 0.0	 0.0	 35.0	 -35.0	 1.0	 100.0	 0	 69	 0.0; % NG
	282	 0.0	 -0.32	 99.0	 -99.0	 1.0	 100.0	 0	 198	 0.0; % NG
	295	 0.0	 0.0	 31.0	 -31.0	 0.98889	 100.0	 0	 61	 0.0; % NG
	296	 35.5	 0.0	 36.0	 -36.0	 1.01588	 100.0	 1	 71	 0.0; % NG
	305	 0.0	 -6.56	 37.0	 -37.0	 1.0	 100.0	 0	 73	 0.0; % NG
	312	 17.5	 0.0	 76.8	 -76.8	 1.0	 100.0	 1	 35	 0.0; % PEL
	312	 23.0	 0.0	 76.8	 -76.8	 1.0	 100.0	 1	 46	 0.0; % PEL
	317	 0.0	 0.0	 0.0	 0.0	 1.0	 100.0	 0	 0	 -7.0; % SYNC
	317	 0.0	 0.0	 0.0	 0.0	 1.0	 100.0	 0	 0	 -7.0; % SYNC
	319	 0.0	 0.1	 18.0	 -18.0	 1.0	 100.0	 0	 35	 0.0; % NG
	325	 0.0	 -0.29	 157.0	 -157.0	 1.0	 100.0	 0	 314	 0.0; % COW
	332	 0.0	 1.22	 16.0	 -16.0	 1.01587	 100.0	 0	 32	 0.0; % NG
	333	 0.0	 4.72	 18.0	 -18.0	 1.02333	 100.0	 0	 35	 0.0; % NG
	336	 46.5	 0.0	 80.4	 -80.4	 1.0	 100.0	 1	 93	 0.0; % NG
	338	 0.0	 1.74	 10.0	 -10.0	 1.0	 100.0	 0	 7	 0.0; % PEL
	338	 0.0	 0.1	 1.0	 -1.0	 1.0	 100.0	 0	 1	 0.0; % PEL
	345	 0.0	 0.0	 40.0	 -40.0	 1.02778	 100.0	 0	 80	 0.0; % PEL
	345	 0.0	 0.0	 11.0	 -11.0	 1.02778	 100.0	 0	 21	 0.0; % NG
	348	 0.0	 0.0	 137.0	 -137.0	 1.02222	 100.0	 0	 273	 0.0; % NG
	357	 0.0	 0.0	 124.0	 -124.0	 1.01588	 100.0	 0	 247	 0.0; % COW
	357	 0.0	 0.0	 3.0	 -3.0	 1.01588	 100.0	 0	 5	 0.0; % PEL
	364	 485.0	 0.0	 485.0	 -485.0	 1.04666	 100.0	 1	 970	 0.0; % NG
	391	 0.0	 0.0	 1.0	 -1.0	 1.0	 100.0	 0	 1	 0.0; % PEL
	409	 0.0	 1.09	 5.0	 -5.0	 1.01587	 100.0	 0	 0	 0.0; % PEL
	411	 0.0	 0.0	 5.0	 -5.0	 1.02222	 100.0	 0	 10	 0.0; % PEL
	411	 0.0	 0.0	 5.0	 -5.0	 1.02222	 100.0	 0	 9	 0.0; % PEL
	431	 0.0	 0.0	 178.0	 -178.0	 1.0	 100.0	 0	 356	 0.0; % COW
	440	 0.0	 1.25	 60.0	 -60.0	 1.0	 100.0	 0	 119	 0.0; % PEL
	447	 15.5	 0.0	 19.2	 -19.2	 1.01587	 100.0	 1	 31	 0.0; % NG
	462	 0.0	 0.0	 2.0	 -2.0	 1.00794	 100.0	 0	 3	 0.0; % PEL
	462	 0.0	 0.0	 15.0	 -15.0	 1.00794	 100.0	 0	 30	 0.0; % PEL
	464	 36.75	 0.0	 37.0	 -37.0	 0.98822	 100.0	 1	 73	 0.5; % NG
	464	 23.75	 0.0	 24.0	 -24.0	 0.98822	 100.0	 1	 47	 0.5; % PEL
	466	 0.0	 0.0	 19.0	 -10.0	 1.00794	 100.0	 0	 5	 0.5; % NG
	470	 0.0	 -0.68	 103.0	 -103.0	 1.0	 100.0	 0	 205	 0.0; % NG
	470	 0.0	 -2.11	 21.0	 -21.0	 1.0	 100.0	 0	 41	 0.0; % NG
	479	 0.0	 -0.24	 27.0	 -27.0	 1.0	 100.0	 0	 53	 0.0; % NG
	479	 0.0	 -0.24	 135.0	 -135.0	 1.0	 100.0	 0	 269	 0.0; % NG
	479	 0.0	 -0.24	 116.0	 -116.0	 1.0	 100.0	 0	 232	 0.0; % NG
	491	 0.0	 -2.0	 12.0	 -17.0	 1.03333	 100.0	 0	 24	 0.0; % PEL
	508	 0.0	 1.77	 55.0	 -55.0	 1.0	 100.0	 0	 109	 0.0; % NG
	519	 0.0	 0.0	 22.0	 -22.0	 1.01587	 100.0	 0	 43	 0.0; % NG
	520	 0.0	 0.0	 81.0	 -81.0	 1.02222	 100.0	 0	 162	 0.0; % NG
	530	 61.0	 0.0	 61.0	 -61.0	 1.0	 100.0	 1	 122	 0.0; % NG
	530	 46.0	 0.0	 46.0	 -46.0	 1.0	 100.0	 1	 92	 0.0; % PEL
	530	 57.0	 0.0	 57.0	 -57.0	 1.0	 100.0	 1	 114	 0.0; % NG
	537	 0.0	 0.0	 9.0	 -9.0	 1.02222	 100.0	 0	 17	 0.0; % NG
	537	 5.0	 0.0	 60.0	 -60.0	 1.02222	 100.0	 1	 10	 0.0; % NG
	546	 80.0	 0.0	 80.0	 -80.0	 1.0	 100.0	 1	 160	 0.0; % NG
	548	 0.0	 1.04	 120.0	 -120.0	 1.0	 100.0	 0	 239	 0.0; % NG
	570	 0.0	 0.0	 39.0	 -39.0	 1.01588	 100.0	 0	 78	 0.0; % NG
	570	 0.0	 0.0	 13.0	 -13.0	 1.01588	 100.0	 0	 26	 0.0; % PEL
	570	 0.0	 0.0	 0.0	 0.0	 1.01588	 100.0	 0	 0	 0.0; % PEL
	583	 141.0	 0.0	 141.0	 -141.0	 1.0	 100.0	 1	 282	 0.0; % NG
	585	 0.0	 0.0	 77.0	 -77.0	 1.01588	 100.0	 0	 153	 0.0; % NG
	586	 0.0	 4.82	 25.0	 -25.0	 1.0	 100.0	 0	 50	 0.0; % NG
	589	 0.0	 0.1	 8.0	 -8.0	 1.0	 100.0	 0	 16	 0.0; % PEL
	593	 0.0	 1.09	 103.0	 -103.0	 1.0	 100.0	 0	 206	 0.0; % NG
	600	 0.0	 0.79	 27.0	 -27.0	 1.01587	 100.0	 0	 54	 0.0; % PEL
	610	 52.5	 0.0	 53.0	 -53.0	 0.975	 100.0	 1	 105	 0.0; % PEL
	610	 0.0	 -0.45	 115.0	 -115.0	 0.975	 100.0	 0	 229	 0.0; % NG
	612	 0.0	 0.0	 248.0	 -248.0	 1.02222	 100.0	 0	 495	 0.0; % COW
	612	 0.0	 0.0	 21.0	 -21.0	 1.02222	 100.0	 0	 42	 0.0; % PEL
	612	 0.0	 0.0	 18.0	 -18.0	 1.02222	 100.0	 0	 36	 0.0; % NG
	613	 0.0	 0.0	 104.0	 -104.0	 1.0	 100.0	 0	 208	 0.0; % NG
	613	 0.0	 0.0	 52.0	 -52.0	 1.0	 100.0	 0	 104	 0.0; % NG
	624	 48.35	 0.0	 97.2	 -97.2	 1.01111	 100.0	 1	 105	 -8.3; % COW
	633	 0.0	 -2.55	 153.0	 -153.0	 1.0	 100.0	 0	 306	 0.0; % COW
	636	 0.0	 0.25	 492.0	 -492.0	 1.01587	 100.0	 0	 984	 0.0; % COW
	636	 68.0	 0.0	 68.0	 -68.0	 1.01587	 100.0	 1	 136	 0.0; % NG
	646	 13.0	 0.0	 237.6	 -237.6	 1.07895	 100.0	 1	 26	 0.0; % NG
	657	 0.0	 0.51	 52.0	 -52.0	 1.0	 100.0	 0	 104	 0.0; % NG
	675	 0.0	 0.0	 84.0	 -84.0	 1.02222	 100.0	 0	 167	 0.0; % NG
	675	 2.5	 0.0	 92.4	 -92.4	 1.02222	 100.0	 1	 5	 0.0; % COW
	676	 0.0	 0.0	 36.0	 -36.0	 1.02778	 100.0	 0	 72	 0.0; % COW
	676	 0.0	 0.0	 12.0	 -12.0	 1.02778	 100.0	 0	 23	 0.0; % PEL
	684	 0.0	 0.0	 78.0	 -78.0	 1.02186	 100.0	 0	 156	 0.0; % NG
	685	 0.0	 0.0	 63.0	 -63.0	 1.02222	 100.0	 0	 126	 0.0; % NG
	689	 11.5	 0.0	 12.0	 -12.0	 0.94444	 100.0	 1	 23	 0.0; % NG
	689	 11.0	 0.0	 11.0	 -11.0	 0.94444	 100.0	 1	 22	 0.0; % NG
	689	 0.0	 1.22	 49.0	 -49.0	 0.94444	 100.0	 0	 97	 0.0; % NG
	689	 10.0	 0.0	 10.0	 -10.0	 0.94444	 100.0	 1	 20	 0.0; % COW
	700	 0.0	 0.0	 39.0	 -39.0	 1.02222	 100.0	 0	 78	 0.0; % NG
	700	 0.0	 0.0	 12.0	 -12.0	 1.02222	 100.0	 0	 23	 0.0; % PEL
	700	 0.0	 0.0	 81.0	 -81.0	 1.02222	 100.0	 0	 162	 0.0; % NG
	704	 26.5	 0.0	 27.0	 -27.0	 0.975	 100.0	 1	 53	 0.0; % PEL
	704	 13.0	 -1.0	 15.0	 -17.0	 0.975	 100.0	 1	 26	 0.0; % NG
	703	 37.0	 0.0	 37.0	 -37.0	 0.975	 100.0	 1	 74	 0.0; % COW
	703	 25.0	 0.0	 25.0	 -25.0	 0.975	 100.0	 1	 50	 0.0; % NG
	702	 63.5	 0.0	 64.0	 -64.0	 0.975	 100.0	 1	 127	 0.0; % COW
	702	 45.0	 0.0	 45.0	 -45.0	 0.975	 100.0	 1	 90	 0.0; % NG
	710	 0.0	 2.0	 52.0	 -52.0	 0.94444	 100.0	 0	 103	 0.0; % NG
	710	 0.0	 2.16	 24.0	 -24.0	 0.94444	 100.0	 0	 48	 0.0; % NG
	710	 10.0	 0.0	 30.0	 -30.0	 0.94444	 100.0	 1	 20	 0.0; % NG
	710	 0.0	 0.5	 208.0	 -208.0	 0.94444	 100.0	 0	 415	 0.0; % NG
	737	 0.0	 0.0	 97.0	 -97.0	 1.02222	 100.0	 0	 193	 0.0; % PEL
	738	 96.0	 0.0	 96.0	 -96.0	 1.0	 100.0	 1	 192	 0.0; % NG
	739	 39.5	 0.0	 40.0	 -40.0	 1.01588	 100.0	 1	 79	 0.0; % PEL
	739	 88.5	 0.0	 89.0	 -89.0	 1.01588	 100.0	 1	 177	 0.0; % NG
	741	 0.0	 0.0	 9.0	 -9.0	 1.0	 100.0	 0	 18	 0.0; % NG
	741	 0.0	 0.0	 11.0	 -11.0	 1.0	 100.0	 0	 22	 0.0; % NG
	742	 0.0	 0.1	 448.0	 -448.0	 1.0	 100.0	 0	 895	 0.0; % COW
	749	 0.0	 3.42	 33.0	 -33.0	 1.0	 100.0	 0	 66	 0.0; % PEL
	749	 0.0	 2.98	 15.0	 -15.0	 1.0	 100.0	 0	 29	 0.0; % NG
	750	 41.5	 0.0	 42.0	 -42.0	 1.0	 100.0	 1	 83	 0.0; % NG
	751	 41.75	 0.0	 42.0	 -42.0	 1.02222	 100.0	 1	 83	 0.5; % PEL
	756	 0.0	 -0.31	 5.0	 -5.0	 1.0	 100.0	 0	 10	 -5.0; % NG
	763	 0.0	 0.84	 8.0	 -8.0	 0.98889	 100.0	 0	 6	 0.0; % PEL
	765	 0.0	 0.0	 22.0	 -22.0	 1.0	 100.0	 0	 44	 0.0; % NG
	766	 0.0	 0.0	 57.0	 -57.0	 1.0	 100.0	 0	 114	 0.0; % PEL
	765	 46.0	 0.0	 46.0	 -46.0	 1.0	 100.0	 1	 92	 0.0; % NG
	766	 92.0	 0.0	 92.0	 -92.0	 1.0	 100.0	 1	 184	 0.0; % NG
	767	 0.0	 0.06	 20.0	 -20.0	 0.825	 100.0	 0	 39	 0.0; % PEL
	767	 0.0	 1.89	 59.0	 -59.0	 0.825	 100.0	 0	 118	 0.0; % PEL
	767	 0.0	 0.16	 8.0	 -8.0	 0.825	 100.0	 0	 16	 0.0; % NG
	767	 0.0	 0.11	 34.0	 -34.0	 0.825	 100.0	 0	 68	 0.0; % NG
	771	 0.0	 0.0	 30.0	 -30.0	 1.01588	 100.0	 0	 59	 0.0; % PEL
	771	 153.5	 0.0	 154.0	 -154.0	 1.01588	 100.0	 1	 307	 0.0; % PEL
	791	 0.0	 -0.47	 31.0	 -31.0	 0.975	 100.0	 0	 62	 0.0; % PEL
	791	 0.0	 -0.47	 39.0	 -39.0	 0.975	 100.0	 0	 78	 0.0; % NG
	792	 0.0	 -0.47	 98.0	 -98.0	 0.975	 100.0	 0	 196	 0.0; % COW
	806	 18.0	 0.0	 18.0	 -18.0	 0.975	 100.0	 1	 36	 0.0; % NG
	806	 26.0	 0.0	 26.0	 -26.0	 0.975	 100.0	 1	 52	 0.0; % NG
	807	 41.0	 0.0	 41.0	 -41.0	 0.975	 100.0	 1	 82	 0.0; % PEL
	807	 40.0	 0.0	 40.0	 -40.0	 0.975	 100.0	 1	 80	 0.0; % NG
	808	 50.5	 0.0	 51.0	 -51.0	 0.975	 100.0	 1	 101	 0.0; % PEL
	808	 40.0	 0.0	 40.0	 -40.0	 0.975	 100.0	 1	 80	 0.0; % NG
	812	 53.0	 0.0	 53.0	 -53.0	 1.0	 100.0	 1	 106	 0.0; % COW
	820	 75.25	 0.0	 75.0	 -75.0	 1.01587	 100.0	 1	 150	 0.5; % NG
	820	 0.0	 0.0	 6.0	 -9.0	 1.01587	 100.0	 0	 1	 0.5; % PEL
	821	 82.25	 0.0	 82.0	 -82.0	 1.01587	 100.0	 1	 164	 0.5; % NG
	821	 66.25	 0.0	 66.0	 -66.0	 1.01587	 100.0	 1	 132	 0.5; % NG
	821	 62.75	 0.0	 63.0	 -63.0	 1.01587	 100.0	 1	 125	 0.5; % PEL
	821	 58.75	 0.0	 59.0	 -59.0	 1.01587	 100.0	 1	 117	 0.5; % PEL
	831	 0.0	 1.01	 40.0	 -40.0	 1.0	 100.0	 0	 79	 0.0; % NG
	831	 0.0	 3.0	 87.0	 -87.0	 1.0	 100.0	 0	 173	 0.0; % NG
	834	 0.0	 0.0	 51.0	 -51.0	 1.02222	 100.0	 0	 101	 0.0; % NG
	835	 180.0	 0.0	 180.0	 -180.0	 1.0	 100.0	 1	 360	 0.0; % NG
	836	 0.0	 -0.46	 30.0	 -30.0	 0.94444	 100.0	 0	 59	 0.0; % NG
	838	 0.0	 1.03	 23.0	 -23.0	 1.0	 100.0	 0	 46	 0.0; % NG
...
];

%% generator cost data
%	2	startup	shutdown	n	c(n-1)	...	c0
mpc.gencost = [
	2	 0.0	 0.0	 3	   0.000000	  13.409395	   0.000000; % NG
	2	 0.0	 0.0	 3	   0.000000	  31.107344	   0.000000; % NG
	2	 0.0	 0.0	 3	   0.000000	  47.925525	   0.000000; % COW
	2	 0.0	 0.0	 3	   0.000000	  20.484465	   0.000000; % NG
	2	 0.0	 0.0	 3	   0.000000	 108.925421	   0.000000; % NG
	2	 0.0	 0.0	 3	   0.000000	  28.288203	   0.000000; % NG
	2	 0.0	 0.0	 3	   0.000000	 113.056805	   0.000000; % NG
	2	 0.0	 0.0	 3	   0.000000	  37.340978	   0.000000; % PEL
	2	 0.0	 0.0	 3	   0.000000	  35.662206	   0.000000; % COW
	2	 0.0	 0.0	 3	   0.000000	  32.703933	   0.000000; % PEL
	2	 0.0	 0.0	 3	   0.000000	 114.557087	   0.000000; % NG
	2	 0.0	 0.0	 3	   0.000000	  50.026509	   0.000000; % PEL
	2	 0.0	 0.0	 3	   0.000000	  34.735298	   0.000000; % NG
	2	 0.0	 0.0	 3	   0.000000	  22.571794	   0.000000; % NG
	2	 0.0	 0.0	 3	   0.000000	  95.370382	   0.000000; % PEL
	2	 0.0	 0.0	 3	   0.000000	 104.662993	   0.000000; % NG
	2	 0.0	 0.0	 3	   0.000000	  29.880796	   0.000000; % NG
	2	 0.0	 0.0	 3	   0.000000	  18.733966	   0.000000; % COW
	2	 0.0	 0.0	 3	   0.000000	  26.732519	   0.000000; % NG
	2	 0.0	 0.0	 3	   0.000000	  49.970101	   0.000000; % NG
	2	 0.0	 0.0	 3	   0.000000	  42.646350	   0.000000; % NG
	2	 0.0	 0.0	 3	   0.000000	  24.566193	   0.000000; % PEL
	2	 0.0	 0.0	 3	   0.000000	  32.544217	   0.000000; % PEL
	2	 0.0	 0.0	 3	   0.000000	  21.679418	   0.000000; % NG
	2	 0.0	 0.0	 3	   0.000000	  43.393878	   0.000000; % NG
	2	 0.0	 0.0	 3	   0.000000	  42.830882	   0.000000; % COW
	2	 0.0	 0.0	 3	   0.000000	  42.424725	   0.000000; % NG
	2	 0.0	 0.0	 3	   0.000000	  28.272820	   0.000000; % PEL
	2	 0.0	 0.0	 3	   0.000000	  42.460903	   0.000000; % COW
	2	 0.0	 0.0	 3	   0.000000	 129.749890	   0.000000; % NG
	2	 0.0	 0.0	 3	   0.000000	  38.262547	   0.000000; % NG
	2	 0.0	 0.0	 3	   0.000000	  34.213206	   0.000000; % COW
	2	 0.0	 0.0	 3	   0.000000	  22.985309	   0.000000; % NG
	2	 0.0	 0.0	 3	   0.000000	 129.405681	   0.000000; % NG
	2	 0.0	 0.0	 3	   0.000000	  36.334698	   0.000000; % PEL
	2	 0.0	 0.0	 3	   0.000000	  25.436639	   0.000000; % PEL
	2	 0.0	 0.0	 3	   0.000000	  35.318814	   0.000000; % PEL
	2	 0.0	 0.0	 3	   0.000000	  94.856054	   0.000000; % PEL
	2	 0.0	 0.0	 3	   0.000000	 112.508935	   0.000000; % PEL
	2	 0.0	 0.0	 3	   0.000000	  41.816967	   0.000000; % NG
	2	 0.0	 0.0	 3	   0.000000	  39.577782	   0.000000; % NG
	2	 0.0	 0.0	 3	   0.000000	  35.074195	   0.000000; % PEL
	2	 0.0	 0.0	 3	   0.000000	 121.067002	   0.000000; % NG
	2	 0.0	 0.0	 3	   0.000000	  29.040562	   0.000000; % COW
	2	 0.0	 0.0	 3	   0.000000	  28.319622	   0.000000; % NG
	2	 0.0	 0.0	 3	   0.000000	  53.375829	   0.000000; % NG
	2	 0.0	 0.0	 3	   0.000000	  43.804258	   0.000000; % NG
	2	 0.0	 0.0	 3	   0.000000	  18.429469	   0.000000; % COW
	2	 0.0	 0.0	 3	   0.000000	  40.720694	   0.000000; % PEL
	2	 0.0	 0.0	 3	   0.000000	  62.366023	   0.000000; % PEL
	2	 0.0	 0.0	 3	   0.000000	 105.750649	   0.000000; % PEL
	2	 0.0	 0.0	 3	   0.000000	  25.509795	   0.000000; % PEL
	2	 0.0	 0.0	 3	   0.000000	 119.781153	   0.000000; % PEL
	2	 0.0	 0.0	 3	   0.000000	 105.846763	   0.000000; % NG
	2	 0.0	 0.0	 3	   0.000000	  34.198164	   0.000000; % PEL
	2	 0.0	 0.0	 3	   0.000000	  29.720127	   0.000000; % NG
	2	 0.0	 0.0	 3	   0.000000	  32.320585	   0.000000; % PEL
	2	 0.0	 0.0	 3	   0.000000	 105.326679	   0.000000; % NG
	2	 0.0	 0.0	 3	   0.000000	  47.168862	   0.000000; % NG
	2	 0.0	 0.0	 3	   0.000000	  11.147421	   0.000000; % COW
	2	 0.0	 0.0	 3	   0.000000	  40.203379	   0.000000; % NG
	2	 0.0	 0.0	 3	   0.000000	  26.475949	   0.000000; % NG
	2	 0.0	 0.0	 3	   0.000000	  44.895622	   0.000000; % NG
	2	 0.0	 0.0	 3	   0.000000	  32.682197	   0.000000; % NG
	2	 0.0	 0.0	 3	   0.000000	  43.201272	   0.000000; % NG
	2	 0.0	 0.0	 3	   0.000000	  99.185353	   0.000000; % PEL
	2	 0.0	 0.0	 3	   0.000000	  44.709576	   0.000000; % PEL
	2	 0.0	 0.0	 3	   0.000000	   0.000000	   0.000000; % SYNC
	2	 0.0	 0.0	 3	   0.000000	   0.000000	   0.000000; % SYNC
	2	 0.0	 0.0	 3	   0.000000	 107.154842	   0.000000; % NG
	2	 0.0	 0.0	 3	   0.000000	  22.126708	   0.000000; % COW
	2	 0.0	 0.0	 3	   0.000000	 110.200206	   0.000000; % NG
	2	 0.0	 0.0	 3	   0.000000	  21.028681	   0.000000; % NG
	2	 0.0	 0.0	 3	   0.000000	  49.214731	   0.000000; % NG
	2	 0.0	 0.0	 3	   0.000000	 103.226922	   0.000000; % PEL
	2	 0.0	 0.0	 3	   0.000000	 114.113676	   0.000000; % PEL
	2	 0.0	 0.0	 3	   0.000000	 111.856160	   0.000000; % PEL
	2	 0.0	 0.0	 3	   0.000000	 100.708099	   0.000000; % NG
	2	 0.0	 0.0	 3	   0.000000	 112.648630	   0.000000; % NG
	2	 0.0	 0.0	 3	   0.000000	  15.902368	   0.000000; % COW
	2	 0.0	 0.0	 3	   0.000000	  52.157163	   0.000000; % PEL
	2	 0.0	 0.0	 3	   0.000000	  33.281249	   0.000000; % NG
	2	 0.0	 0.0	 3	   0.000000	 107.373446	   0.000000; % PEL
	2	 0.0	 0.0	 3	   0.000000	  41.380567	   0.000000; % PEL
	2	 0.0	 0.0	 3	   0.000000	  21.429155	   0.000000; % PEL
	2	 0.0	 0.0	 3	   0.000000	  33.641328	   0.000000; % PEL
	2	 0.0	 0.0	 3	   0.000000	  21.065015	   0.000000; % COW
	2	 0.0	 0.0	 3	   0.000000	  28.884585	   0.000000; % PEL
	2	 0.0	 0.0	 3	   0.000000	  29.611076	   0.000000; % NG
	2	 0.0	 0.0	 3	   0.000000	  97.038261	   0.000000; % PEL
	2	 0.0	 0.0	 3	   0.000000	  41.423740	   0.000000; % PEL
	2	 0.0	 0.0	 3	   0.000000	  15.214475	   0.000000; % NG
	2	 0.0	 0.0	 3	   0.000000	  34.270388	   0.000000; % PEL
	2	 0.0	 0.0	 3	   0.000000	  35.720652	   0.000000; % NG
	2	 0.0	 0.0	 3	   0.000000	  47.404552	   0.000000; % NG
	2	 0.0	 0.0	 3	   0.000000	  29.607197	   0.000000; % NG
	2	 0.0	 0.0	 3	   0.000000	  34.430596	   0.000000; % NG
	2	 0.0	 0.0	 3	   0.000000	  16.733430	   0.000000; % NG
	2	 0.0	 0.0	 3	   0.000000	 115.624427	   0.000000; % NG
	2	 0.0	 0.0	 3	   0.000000	 105.340402	   0.000000; % PEL
	2	 0.0	 0.0	 3	   0.000000	  40.111380	   0.000000; % NG
	2	 0.0	 0.0	 3	   0.000000	 125.429814	   0.000000; % NG
	2	 0.0	 0.0	 3	   0.000000	  12.846056	   0.000000; % NG
	2	 0.0	 0.0	 3	   0.000000	  21.485381	   0.000000; % NG
	2	 0.0	 0.0	 3	   0.000000	  15.025122	   0.000000; % PEL
	2	 0.0	 0.0	 3	   0.000000	  30.402417	   0.000000; % NG
	2	 0.0	 0.0	 3	   0.000000	  45.537009	   0.000000; % NG
	2	 0.0	 0.0	 3	   0.000000	 106.144639	   0.000000; % NG
	2	 0.0	 0.0	 3	   0.000000	  47.740858	   0.000000; % NG
	2	 0.0	 0.0	 3	   0.000000	  34.382454	   0.000000; % NG
	2	 0.0	 0.0	 3	   0.000000	  34.286070	   0.000000; % NG
	2	 0.0	 0.0	 3	   0.000000	 118.753632	   0.000000; % PEL
	2	 0.0	 0.0	 3	   0.000000	  49.144417	   0.000000; % PEL
	2	 0.0	 0.0	 3	   0.000000	  95.051989	   0.000000; % NG
	2	 0.0	 0.0	 3	   0.000000	  34.320952	   0.000000; % NG
	2	 0.0	 0.0	 3	   0.000000	  39.421884	   0.000000; % NG
	2	 0.0	 0.0	 3	   0.000000	  97.588389	   0.000000; % PEL
	2	 0.0	 0.0	 3	   0.000000	 116.298354	   0.000000; % NG
	2	 0.0	 0.0	 3	   0.000000	 110.050420	   0.000000; % PEL
	2	 0.0	 0.0	 3	   0.000000	  33.665482	   0.000000; % PEL
	2	 0.0	 0.0	 3	   0.000000	  50.428964	   0.000000; % NG
	2	 0.0	 0.0	 3	   0.000000	  42.844648	   0.000000; % COW
	2	 0.0	 0.0	 3	   0.000000	  44.664680	   0.000000; % PEL
	2	 0.0	 0.0	 3	   0.000000	  37.314561	   0.000000; % NG
	2	 0.0	 0.0	 3	   0.000000	  37.424900	   0.000000; % NG
	2	 0.0	 0.0	 3	   0.000000	 107.476686	   0.000000; % NG
	2	 0.0	 0.0	 3	   0.000000	 112.031232	   0.000000; % COW
	2	 0.0	 0.0	 3	   0.000000	  23.394024	   0.000000; % COW
	2	 0.0	 0.0	 3	   0.000000	  30.417268	   0.000000; % COW
	2	 0.0	 0.0	 3	   0.000000	  31.530774	   0.000000; % NG
	2	 0.0	 0.0	 3	   0.000000	  19.789937	   0.000000; % NG
	2	 0.0	 0.0	 3	   0.000000	  34.642733	   0.000000; % NG
	2	 0.0	 0.0	 3	   0.000000	  37.248529	   0.000000; % NG
	2	 0.0	 0.0	 3	   0.000000	 111.815061	   0.000000; % COW
	2	 0.0	 0.0	 3	   0.000000	  47.672977	   0.000000; % COW
	2	 0.0	 0.0	 3	   0.000000	 126.982832	   0.000000; % PEL
	2	 0.0	 0.0	 3	   0.000000	  31.150494	   0.000000; % NG
	2	 0.0	 0.0	 3	   0.000000	  31.341177	   0.000000; % NG
	2	 0.0	 0.0	 3	   0.000000	  22.658011	   0.000000; % NG
	2	 0.0	 0.0	 3	   0.000000	 105.745883	   0.000000; % NG
	2	 0.0	 0.0	 3	   0.000000	  43.889667	   0.000000; % NG
	2	 0.0	 0.0	 3	   0.000000	 116.415985	   0.000000; % COW
	2	 0.0	 0.0	 3	   0.000000	  47.729573	   0.000000; % NG
	2	 0.0	 0.0	 3	   0.000000	  54.351772	   0.000000; % PEL
	2	 0.0	 0.0	 3	   0.000000	  17.527648	   0.000000; % NG
	2	 0.0	 0.0	 3	   0.000000	  49.460931	   0.000000; % PEL
	2	 0.0	 0.0	 3	   0.000000	  53.399727	   0.000000; % NG
	2	 0.0	 0.0	 3	   0.000000	  22.369194	   0.000000; % COW
	2	 0.0	 0.0	 3	   0.000000	  25.996049	   0.000000; % NG
	2	 0.0	 0.0	 3	   0.000000	  42.670952	   0.000000; % COW
	2	 0.0	 0.0	 3	   0.000000	  36.871201	   0.000000; % NG
	2	 0.0	 0.0	 3	   0.000000	 108.579564	   0.000000; % NG
	2	 0.0	 0.0	 3	   0.000000	  49.576855	   0.000000; % NG
	2	 0.0	 0.0	 3	   0.000000	  21.550069	   0.000000; % NG
	2	 0.0	 0.0	 3	   0.000000	  33.795537	   0.000000; % NG
	2	 0.0	 0.0	 3	   0.000000	 108.559824	   0.000000; % PEL
	2	 0.0	 0.0	 3	   0.000000	 123.215905	   0.000000; % NG
	2	 0.0	 0.0	 3	   0.000000	 110.716487	   0.000000; % PEL
	2	 0.0	 0.0	 3	   0.000000	  43.225307	   0.000000; % NG
	2	 0.0	 0.0	 3	   0.000000	  32.888565	   0.000000; % NG
	2	 0.0	 0.0	 3	   0.000000	  23.351447	   0.000000; % NG
	2	 0.0	 0.0	 3	   0.000000	  34.291115	   0.000000; % COW
	2	 0.0	 0.0	 3	   0.000000	 111.264681	   0.000000; % PEL
	2	 0.0	 0.0	 3	   0.000000	  41.478238	   0.000000; % NG
	2	 0.0	 0.0	 3	   0.000000	  49.955760	   0.000000; % NG
	2	 0.0	 0.0	 3	   0.000000	  40.397864	   0.000000; % PEL
	2	 0.0	 0.0	 3	   0.000000	  28.479741	   0.000000; % NG
	2	 0.0	 0.0	 3	   0.000000	 109.477258	   0.000000; % PEL
	2	 0.0	 0.0	 3	   0.000000	 101.034318	   0.000000; % NG
	2	 0.0	 0.0	 3	   0.000000	  38.116001	   0.000000; % PEL
	2	 0.0	 0.0	 3	   0.000000	 113.700924	   0.000000; % NG
	2	 0.0	 0.0	 3	   0.000000	  38.090042	   0.000000; % NG
	2	 0.0	 0.0	 3	   0.000000	 116.103190	   0.000000; % PEL
	2	 0.0	 0.0	 3	   0.000000	  30.049675	   0.000000; % PEL
	2	 0.0	 0.0	 3	   0.000000	  91.065151	   0.000000; % NG
	2	 0.0	 0.0	 3	   0.000000	 113.340308	   0.000000; % NG
	2	 0.0	 0.0	 3	   0.000000	  39.447435	   0.000000; % PEL
	2	 0.0	 0.0	 3	   0.000000	  31.460049	   0.000000; % PEL
	2	 0.0	 0.0	 3	   0.000000	 108.209898	   0.000000; % PEL
	2	 0.0	 0.0	 3	   0.000000	  14.100324	   0.000000; % NG
	2	 0.0	 0.0	 3	   0.000000	  33.687083	   0.000000; % COW
	2	 0.0	 0.0	 3	   0.000000	 117.028476	   0.000000; % NG
	2	 0.0	 0.0	 3	   0.000000	  51.973804	   0.000000; % NG
	2	 0.0	 0.0	 3	   0.000000	  56.873140	   0.000000; % PEL
	2	 0.0	 0.0	 3	   0.000000	  15.666793	   0.000000; % NG
	2	 0.0	 0.0	 3	   0.000000	  32.564503	   0.000000; % PEL
	2	 0.0	 0.0	 3	   0.000000	  95.867748	   0.000000; % NG
	2	 0.0	 0.0	 3	   0.000000	  35.015386	   0.000000; % COW
	2	 0.0	 0.0	 3	   0.000000	  36.300428	   0.000000; % NG
	2	 0.0	 0.0	 3	   0.000000	  99.832710	   0.000000; % PEL
	2	 0.0	 0.0	 3	   0.000000	  35.391841	   0.000000; % NG
	2	 0.0	 0.0	 3	   0.000000	  97.701407	   0.000000; % NG
	2	 0.0	 0.0	 3	   0.000000	  29.477873	   0.000000; % PEL
	2	 0.0	 0.0	 3	   0.000000	  29.478832	   0.000000; % PEL
	2	 0.0	 0.0	 3	   0.000000	  38.474634	   0.000000; % NG
	2	 0.0	 0.0	 3	   0.000000	  38.431478	   0.000000; % NG
	2	 0.0	 0.0	 3	   0.000000	 117.338369	   0.000000; % NG
	2	 0.0	 0.0	 3	   0.000000	  12.619040	   0.000000; % NG
	2	 0.0	 0.0	 3	   0.000000	 113.186506	   0.000000; % NG
	2	 0.0	 0.0	 3	   0.000000	 113.393834	   0.000000; % NG
...
];

%% branch data
%	fbus	tbus	r	x	b	rateA	rateB	rateC	ratio	angle	status	angmin	angmax
mpc.branch = [
	4647	 1	 0.005726	 0.010482	 0.0	 2186.0	 2186.0	 2186.0	 0.0	 0.0	 1	 -30.0	 30.0;
	5244	 1	 0.01284	 0.025679	 0.0	 910.0	 910.0	 910.0	 0.0	 0.0	 1	 -30.0	 30.0;
	1682	 2	 0.005799	 0.010615	 0.0075	 2441.0	 2441.0	 2441.0	 0.0	 0.0	 1	 -30.0	 30.0;
	1673	 3	 0.134039	 0.309398	 0.0035	 91.0	 91.0	 91.0	 0.0	 0.0	 1	 -30.0	 30.0;
	2303	 3	 0.049131	 0.133283	 0.0015	 215.0	 215.0	 215.0	 0.0	 0.0	 1	 -30.0	 30.0;
	700	 4	 0.025926	 0.109136	 0.0002	 281.0	 281.0	 281.0	 0.0	 0.0	 1	 -30.0	 30.0;
	3939	 4	 0.05	 0.126914	 0.0006	 226.0	 226.0	 226.0	 0.0	 0.0	 1	 -30.0	 30.0;
	5046	 4	 0.02321	 0.097407	 0.0016	 315.0	 315.0	 315.0	 0.0	 0.0	 1	 -30.0	 30.0;
	4413	 5	 0.040564	 0.113631	 0.0013	 245.0	 245.0	 245.0	 0.0	 0.0	 1	 -30.0	 30.0;
	2779	 6	 0.006047	 0.020912	 0.0222	 1398.0	 1398.0	 1398.0	 0.0	 0.0	 1	 -30.0	 30.0;
	2780	 7	 0.012472	 0.032099	 0.0061	 884.0	 884.0	 884.0	 0.0	 0.0	 1	 -30.0	 30.0;
	2466	 8	 0.002607	 0.017462	 0.0324	 540.0	 540.0	 540.0	 0.0	 0.0	 1	 -30.0	 30.0;
	470	 9	 0.053893	 0.14258	 0.0017	 194.0	 194.0	 194.0	 0.0	 0.0	 1	 -30.0	 30.0;
	11	 10	 0.000247	 0.001235	 0.0005	 24078.0	 24078.0	 24078.0	 0.0	 0.0	 1	 -30.0	 30.0;
	11	 10	 0.000247	 0.001235	 0.0002	 24078.0	 24078.0	 24078.0	 0.0	 0.0	 1	 -30.0	 30.0;
	30	 11	 0.039753	 0.100988	 0.0047	 284.0	 284.0	 284.0	 0.0	 0.0	 1	 -30.0	 30.0;
	2929	 11	 0.037654	 0.096173	 0.001	 294.0	 294.0	 294.0	 0.0	 0.0	 1	 -30.0	 30.0;
	2181	 12	 0.014613	 0.060721	 0.0008	 487.0	 487.0	 487.0	 0.0	 0.0	 1	 -30.0	 30.0;
	4017	 12	 0.034064	 0.121139	 0.0015	 242.0	 242.0	 242.0	 0.0	 0.0	 1	 -30.0	 30.0;
	4019	 12	 0.000242	 0.000442	 0.0004	 60355.0	 60355.0	 60355.0	 0.0	 0.0	 1	 -30.0	 30.0;
	115	 13	 2.1e-05	 0.000125	 0.1386	 737.0	 737.0	 737.0	 0.0	 0.0	 1	 -30.0	 30.0;
	2337	 13	 0.000145	 0.001877	 0.0635	 2487.0	 2487.0	 2487.0	 0.0	 0.0	 1	 -30.0	 30.0;
	4577	 13	 0.000319	 0.003234	 0.0838	 1841.0	 1841.0	 1841.0	 0.0	 0.0	 1	 -30.0	 30.0;
	116	 13	 2.1e-05	 0.000125	 0.1386	 737.0	 737.0	 737.0	 0.0	 0.0	 1	 -30.0	 30.0;
	1225	 14	 0.04	 0.134198	 0.0274	 217.0	 217.0	 217.0	 0.0	 0.0	 1	 -30.0	 30.0;
	2874	 14	 0.012222	 0.052346	 0.0026	 565.0	 565.0	 565.0	 0.0	 0.0	 1	 -30.0	 30.0;
	4595	 14	 0.007284	 0.045432	 0.0024	 660.0	 660.0	 660.0	 0.0	 0.0	 1	 -30.0	 30.0;
	4955	 14	 0.059963	 0.154222	 0.0236	 184.0	 184.0	 184.0	 0.0	 0.0	 1	 -30.0	 30.0;
	5230	 14	 0.018025	 0.110988	 0.0073	 270.0	 270.0	 270.0	 0.0	 0.0	 1	 -30.0	 30.0;
	2874	 14	 0.012222	 0.052593	 0.0032	 562.0	 562.0	 562.0	 0.0	 0.0	 1	 -30.0	 30.0;
	4595	 14	 0.007284	 0.044938	 0.0024	 667.0	 667.0	 667.0	 0.0	 0.0	 1	 -30.0	 30.0;
	2906	 15	 0.037541	 0.100529	 0.0011	 284.0	 284.0	 284.0	 0.0	 0.0	 1	 -30.0	 30.0;
	4124	 15	 0.090199	 0.211388	 0.0023	 133.0	 133.0	 133.0	 0.0	 0.0	 1	 -30.0	 30.0;
	4455	 15	 0.09801	 0.267574	 0.0	 107.0	 107.0	 107.0	 0.0	 0.0	 1	 -30.0	 30.0;
	249	 16	 0.071806	 0.191484	 0.0019	 149.0	 149.0	 149.0	 0.0	 0.0	 1	 -30.0	 30.0;
	337	 16	 0.119174	 0.284958	 0.0044	 99.0	 99.0	 99.0	 0.0	 0.0	 1	 -30.0	 30.0;
	5834	 17	 0.022346	 0.061111	 0.0029	 457.0	 457.0	 457.0	 0.0	 0.0	 1	 -30.0	 30.0;
	3727	 18	 0.009383	 0.019753	 0.0	 1194.0	 1194.0	 1194.0	 0.0	 0.0	 1	 -30.0	 30.0;
	5094	 19	 0.000252	 0.000504	 0.0	 52398.0	 52398.0	 52398.0	 0.0	 0.0	 1	 -30.0	 30.0;
	3727	 20	 0.001975	 0.004444	 0.0	 5369.0	 5369.0	 5369.0	 0.0	 0.0	 1	 -30.0	 30.0;
	1354	 21	 0.036296	 0.099012	 0.0045	 282.0	 282.0	 282.0	 0.0	 0.0	 1	 -30.0	 30.0;
	1598	 21	 0.032716	 0.089136	 0.0057	 313.0	 313.0	 313.0	 0.0	 0.0	 1	 -30.0	 30.0;
	1843	 22	 0.138574	 0.351474	 0.0058	 81.0	 81.0	 81.0	 0.0	 0.0	 1	 -30.0	 30.0;
	5023	 22	 0.094407	 0.210456	 0.0044	 132.0	 132.0	 132.0	 0.0	 0.0	 1	 -30.0	 30.0;
	1157	 23	 0.047115	 0.117158	 0.001	 234.0	 234.0	 234.0	 0.0	 0.0	 1	 -30.0	 30.0;
	2703	 23	 0.039557	 0.120937	 0.0132	 233.0	 233.0	 233.0	 0.0	 0.0	 1	 -30.0	 30.0;
	3425	 23	 0.022676	 0.062484	 0.0007	 445.0	 445.0	 445.0	 0.0	 0.0	 1	 -30.0	 30.0;
	144	 24	 0.064568	 0.16716	 0.0113	 180.0	 180.0	 180.0	 0.0	 0.0	 1	 -30.0	 30.0;
	1282	 24	 0.048605	 0.128481	 0.0062	 235.0	 235.0	 235.0	 0.0	 0.0	 1	 -30.0	 30.0;
	490	 25	 0.004815	 0.02963	 0.0016	 1048.0	 1048.0	 1048.0	 0.0	 0.0	 1	 -30.0	 30.0;
	2093	 25	 0.007309	 0.04463	 0.0073	 710.0	 710.0	 710.0	 0.0	 0.0	 1	 -30.0	 30.0;
	612	 26	 0.034321	 0.145802	 0.0073	 199.0	 199.0	 199.0	 0.0	 0.0	 1	 -30.0	 30.0;
	1866	 26	 0.004815	 0.009753	 0.0005	 2731.0	 2731.0	 2731.0	 0.0	 0.0	 1	 -30.0	 30.0;
	2602	 26	 0.049012	 0.133704	 0.0063	 209.0	 209.0	 209.0	 0.0	 0.0	 1	 -30.0	 30.0;
	2922	 26	 0.04642	 0.126543	 0.0058	 221.0	 221.0	 221.0	 0.0	 0.0	 1	 -30.0	 30.0;
	3339	 26	 0.046296	 0.125926	 0.006	 222.0	 222.0	 222.0	 0.0	 0.0	 1	 -30.0	 30.0;
	4632	 26	 0.053704	 0.136753	 0.0065	 203.0	 203.0	 203.0	 0.0	 0.0	 1	 -30.0	 30.0;
	2922	 26	 0.03358	 0.120988	 0.0062	 237.0	 237.0	 237.0	 0.0	 0.0	 1	 -30.0	 30.0;
	536	 27	 0.006163	 0.041067	 0.0759	 446.0	 446.0	 446.0	 0.0	 0.0	 1	 -30.0	 30.0;
	2350	 27	 0.000652	 0.004369	 0.0081	 558.0	 558.0	 558.0	 0.0	 0.0	 1	 -30.0	 30.0;
	2684	 28	 0.050945	 0.131922	 0.0015	 216.0	 216.0	 216.0	 0.0	 0.0	 1	 -30.0	 30.0;
	3892	 28	 0.058781	 0.149005	 0.0017	 190.0	 190.0	 190.0	 0.0	 0.0	 1	 -30.0	 30.0;
	2887	 29	 0.067019	 0.137566	 0.0037	 193.0	 193.0	 193.0	 0.0	 0.0	 1	 -30.0	 30.0;
	3321	 29	 0.032754	 0.088939	 0.0039	 312.0	 312.0	 312.0	 0.0	 0.0	 1	 -30.0	 30.0;
	3321	 29	 0.030184	 0.080096	 0.0053	 345.0	 345.0	 345.0	 0.0	 0.0	 1	 -30.0	 30.0;
	144	 30	 0.066049	 0.187778	 0.0099	 161.0	 161.0	 161.0	 0.0	 0.0	 1	 -30.0	 30.0;
	1553	 30	 0.065062	 0.133704	 0.0062	 212.0	 212.0	 212.0	 0.0	 0.0	 1	 -30.0	 30.0;
	4841	 30	 0.041728	 0.106049	 0.005	 281.0	 281.0	 281.0	 0.0	 0.0	 1	 -30.0	 30.0;
	150	 31	 0.009574	 0.03875	 0.0114	 740.0	 740.0	 740.0	 0.0	 0.0	 1	 -30.0	 30.0;
	3162	 31	 0.000171	 0.000313	 0.0002	 82782.0	 82782.0	 82782.0	 0.0	 0.0	 1	 -30.0	 30.0;
	3692	 31	 0.034266	 0.09423	 0.001	 295.0	 295.0	 295.0	 0.0	 0.0	 1	 -30.0	 30.0;
	4741	 31	 0.006803	 0.028219	 0.0	 1018.0	 1018.0	 1018.0	 0.0	 0.0	 1	 -30.0	 30.0;
	150	 31	 0.008566	 0.037541	 0.0121	 767.0	 767.0	 767.0	 0.0	 0.0	 1	 -30.0	 30.0;
	3729	 32	 0.009733	 0.034089	 0.0185	 902.0	 902.0	 902.0	 0.0	 0.0	 1	 -30.0	 30.0;
	366	 34	 0.000277	 0.002015	 0.003	 288.0	 288.0	 288.0	 0.0	 0.0	 1	 -30.0	 30.0;
	1017	 33	 0.00881	 0.033995	 0.0607	 289.0	 289.0	 289.0	 0.0	 0.0	 1	 -30.0	 30.0;
	1158	 33	 0.004642	 0.019832	 0.0354	 255.0	 255.0	 255.0	 0.0	 0.0	 1	 -30.0	 30.0;
	2580	 34	 0.008861	 0.03506	 0.0623	 288.0	 288.0	 288.0	 0.0	 0.0	 1	 -30.0	 30.0;
	2704	 34	 0.006993	 0.032869	 0.0557	 255.0	 255.0	 255.0	 0.0	 0.0	 1	 -30.0	 30.0;
	4746	 33	 0.002173	 0.008731	 0.0152	 3441.0	 3441.0	 3441.0	 0.0	 0.0	 1	 -30.0	 30.0;
	4858	 34	 0.00077	 0.003121	 0.0051	 9629.0	 9629.0	 9629.0	 0.0	 0.0	 1	 -30.0	 30.0;
	5671	 33	 0.004109	 0.016138	 0.0284	 288.0	 288.0	 288.0	 0.0	 0.0	 1	 -30.0	 30.0;
	368	 35	 8.3e-05	 0.000907	 0.0202	 1034.0	 1034.0	 1034.0	 0.0	 0.0	 1	 -30.0	 30.0;
	1109	 35	 0.000552	 0.006726	 0.0939	 1786.0	 1786.0	 1786.0	 0.0	 0.0	 1	 -30.0	 30.0;
	2150	 35	 0.000512	 0.008012	 0.2455	 2462.0	 2462.0	 2462.0	 0.0	 0.0	 1	 -30.0	 30.0;
	3135	 35	 0.001107	 0.00918	 0.1906	 1644.0	 1644.0	 1644.0	 0.0	 0.0	 1	 -30.0	 30.0;
	367	 36	 6.2e-05	 0.000741	 0.0173	 1095.0	 1095.0	 1095.0	 0.0	 0.0	 1	 -30.0	 30.0;
	2150	 35	 0.000512	 0.008019	 0.2455	 2462.0	 2462.0	 2462.0	 0.0	 0.0	 1	 -30.0	 30.0;
	2150	 36	 0.001153	 0.013123	 0.1841	 1433.0	 1433.0	 1433.0	 0.0	 0.0	 1	 -30.0	 30.0;
	5229	 37	 0.055933	 0.120685	 0.0013	 229.0	 229.0	 229.0	 0.0	 0.0	 1	 -30.0	 30.0;
	5515	 37	 0.039053	 0.084404	 0.001	 328.0	 328.0	 328.0	 0.0	 0.0	 1	 -30.0	 30.0;
	730	 38	 0.00252	 0.006551	 0.0001	 4462.0	 4462.0	 4462.0	 0.0	 0.0	 1	 -30.0	 30.0;
	1229	 39	 0.009877	 0.042222	 0.0021	 697.0	 697.0	 697.0	 0.0	 0.0	 1	 -30.0	 30.0;
	5809	 39	 0.024815	 0.063086	 0.0029	 446.0	 446.0	 446.0	 0.0	 0.0	 1	 -30.0	 30.0;
	1229	 39	 0.009877	 0.042222	 0.0021	 697.0	 697.0	 697.0	 0.0	 0.0	 1	 -30.0	 30.0;
	2251	 40	 0.056173	 0.142593	 0.0066	 198.0	 198.0	 198.0	 0.0	 0.0	 1	 -30.0	 30.0;
	4595	 40	 0.034444	 0.109012	 0.0076	 266.0	 266.0	 266.0	 0.0	 0.0	 1	 -30.0	 30.0;
	430	 41	 0.000158	 0.000672	 0.0719	 331.0	 331.0	 331.0	 0.0	 0.0	 1	 -30.0	 30.0;
	3953	 41	 4.5e-05	 8.9e-05	 0.002	 268.0	 268.0	 268.0	 0.0	 0.0	 1	 -30.0	 30.0;
	1484	 42	 0.01096	 0.020063	 0.009	 1461.0	 1461.0	 1461.0	 0.0	 0.0	 1	 -30.0	 30.0;
	2765	 42	 0.002268	 0.008818	 0.0099	 3668.0	 3668.0	 3668.0	 0.0	 0.0	 1	 -30.0	 30.0;
	2724	 43	 0.001481	 0.006296	 0.0039	 4689.0	 4689.0	 4689.0	 0.0	 0.0	 1	 -30.0	 30.0;
	3488	 44	 0.050617	 0.137012	 0.009	 203.0	 203.0	 203.0	 0.0	 0.0	 1	 -30.0	 30.0;
	4322	 44	 0.074326	 0.194507	 0.0021	 142.0	 142.0	 142.0	 0.0	 0.0	 1	 -30.0	 30.0;
	5097	 45	 0.000247	 0.000741	 0.0	 38027.0	 38027.0	 38027.0	 0.0	 0.0	 1	 -30.0	 30.0;
	1085	 46	 0.049131	 0.134039	 0.001	 207.0	 207.0	 207.0	 0.0	 0.0	 1	 -30.0	 30.0;
	2194	 46	 0.033258	 0.090955	 0.001	 305.0	 305.0	 305.0	 0.0	 0.0	 1	 -30.0	 30.0;
	3305	 46	 0.067437	 0.123442	 0.001	 210.0	 210.0	 210.0	 0.0	 0.0	 1	 -30.0	 30.0;
	1085	 47	 0.037289	 0.118166	 0.001	 239.0	 239.0	 239.0	 0.0	 0.0	 1	 -30.0	 30.0;
	5363	 48	 0.021358	 0.057037	 0.0005	 573.0	 573.0	 573.0	 0.0	 0.0	 1	 -30.0	 30.0;
	1223	 49	 0.071303	 0.180902	 0.0021	 152.0	 152.0	 152.0	 0.0	 0.0	 1	 -30.0	 30.0;
	2345	 49	 0.071554	 0.18191	 0.0021	 152.0	 152.0	 152.0	 0.0	 0.0	 1	 -30.0	 30.0;
	470	 50	 0.028193	 0.104535	 0.0013	 275.0	 275.0	 275.0	 0.0	 0.0	 1	 -30.0	 30.0;
	1676	 50	 0.055404	 0.171429	 0.01	 166.0	 166.0	 166.0	 0.0	 0.0	 1	 -30.0	 30.0;
	3553	 50	 0.010834	 0.071554	 0.001	 412.0	 412.0	 412.0	 0.0	 0.0	 1	 -30.0	 30.0;
	4629	 50	 0.013857	 0.030234	 0.0003	 896.0	 896.0	 896.0	 0.0	 0.0	 1	 -30.0	 30.0;
	3553	 50	 0.011414	 0.070648	 0.0009	 417.0	 417.0	 417.0	 0.0	 0.0	 1	 -30.0	 30.0;
	4629	 50	 0.013757	 0.030108	 0.0003	 900.0	 900.0	 900.0	 0.0	 0.0	 1	 -30.0	 30.0;
	1196	 51	 0.00478	 0.028622	 0.0547	 455.0	 455.0	 455.0	 0.0	 0.0	 1	 -30.0	 30.0;
	1197	 51	 0.00478	 0.028583	 0.0547	 455.0	 455.0	 455.0	 0.0	 0.0	 1	 -30.0	 30.0;
	166	 52	 0.01284	 0.032716	 0.0015	 846.0	 846.0	 846.0	 0.0	 0.0	 1	 -30.0	 30.0;
	5489	 52	 0.014198	 0.036049	 0.0016	 767.0	 767.0	 767.0	 0.0	 0.0	 1	 -30.0	 30.0;
	3349	 53	 0.005291	 0.021668	 0.0003	 1285.0	 1285.0	 1285.0	 0.0	 0.0	 1	 -30.0	 30.0;
	2769	 54	 0.01358	 0.047654	 0.0023	 600.0	 600.0	 600.0	 0.0	 0.0	 1	 -30.0	 30.0;
	373	 55	 0.000257	 0.000514	 0.0294	 53862.0	 53862.0	 53862.0	 0.0	 0.0	 1	 -30.0	 30.0;
	2693	 56	 0.000257	 0.002153	 0.2147	 452.0	 452.0	 452.0	 0.0	 0.0	 1	 -30.0	 30.0;
	3427	 56	 0.000277	 0.000869	 0.0931	 481.0	 481.0	 481.0	 0.0	 0.0	 1	 -30.0	 30.0;
	5098	 57	 0.000756	 0.00252	 0.0	 11560.0	 11560.0	 11560.0	 0.0	 0.0	 1	 -30.0	 30.0;
	3390	 58	 0.000237	 0.00083	 0.1863	 268.0	 268.0	 268.0	 0.0	 0.0	 1	 -30.0	 30.0;
	3565	 58	 0.000178	 0.000612	 0.1377	 268.0	 268.0	 268.0	 0.0	 0.0	 1	 -30.0	 30.0;
	142	 59	 0.030486	 0.076342	 0.002	 370.0	 370.0	 370.0	 0.0	 0.0	 1	 -30.0	 30.0;
	1652	 59	 0.011086	 0.024691	 0.0015	 1124.0	 1124.0	 1124.0	 0.0	 0.0	 1	 -30.0	 30.0;
	2476	 60	 0.044344	 0.170572	 0.0021	 173.0	 173.0	 173.0	 0.0	 0.0	 1	 -30.0	 30.0;
	3525	 60	 0.036709	 0.151776	 0.0017	 195.0	 195.0	 195.0	 0.0	 0.0	 1	 -30.0	 30.0;
	2228	 61	 0.017788	 0.048551	 0.0006	 589.0	 589.0	 589.0	 0.0	 0.0	 1	 -30.0	 30.0;
	2634	 61	 0.057521	 0.145251	 0.0017	 195.0	 195.0	 195.0	 0.0	 0.0	 1	 -30.0	 30.0;
	2048	 62	 0.014109	 0.057949	 0.0029	 510.0	 510.0	 510.0	 0.0	 0.0	 1	 -30.0	 30.0;
	2950	 62	 0.007055	 0.02973	 0.0014	 996.0	 996.0	 996.0	 0.0	 0.0	 1	 -30.0	 30.0;
	371	 63	 0.024263	 0.065911	 0.0007	 434.0	 434.0	 434.0	 0.0	 0.0	 1	 -30.0	 30.0;
	3081	 63	 0.020912	 0.059209	 0.0016	 485.0	 485.0	 485.0	 0.0	 0.0	 1	 -30.0	 30.0;
	145	 64	 0.002568	 0.011753	 0.0203	 424.0	 424.0	 424.0	 0.0	 0.0	 1	 -30.0	 30.0;
	5108	 64	 0.002568	 0.011615	 0.0228	 290.0	 290.0	 290.0	 0.0	 0.0	 1	 -30.0	 30.0;
	4607	 65	 0.006299	 0.033585	 0.0599	 891.0	 891.0	 891.0	 0.0	 0.0	 1	 -30.0	 30.0;
	4607	 65	 0.006299	 0.033661	 0.06	 889.0	 889.0	 889.0	 0.0	 0.0	 1	 -30.0	 30.0;
	1546	 66	 0.102293	 0.226757	 0.0025	 119.0	 119.0	 119.0	 0.0	 0.0	 1	 -30.0	 30.0;
	2292	 66	 0.177551	 0.405291	 0.0046	 67.0	 67.0	 67.0	 0.0	 0.0	 1	 -30.0	 30.0;
	3249	 66	 0.088264	 0.161566	 0.0017	 161.0	 161.0	 161.0	 0.0	 0.0	 1	 -30.0	 30.0;
	3030	 67	 0.007307	 0.014613	 0.0002	 1862.0	 1862.0	 1862.0	 0.0	 0.0	 1	 -30.0	 30.0;
	2883	 68	 0.067775	 0.139834	 0.001	 191.0	 191.0	 191.0	 0.0	 0.0	 1	 -30.0	 30.0;
	4537	 68	 0.047367	 0.16125	 0.0021	 176.0	 176.0	 176.0	 0.0	 0.0	 1	 -30.0	 30.0;
	5151	 68	 0.004031	 0.016629	 0.001	 1726.0	 1726.0	 1726.0	 0.0	 0.0	 1	 -30.0	 30.0;
	4610	 69	 0.073066	 0.205089	 0.0022	 136.0	 136.0	 136.0	 0.0	 0.0	 1	 -30.0	 30.0;
	5099	 70	 4.8e-05	 8.8e-05	 0.0001	 303410.0	 303410.0	 303410.0	 0.0	 0.0	 1	 -30.0	 30.0;
	2165	 71	 0.000252	 0.00252	 0.0008	 11313.0	 11313.0	 11313.0	 0.0	 0.0	 1	 -30.0	 30.0;
	3145	 71	 0.030738	 0.088687	 0.0169	 306.0	 306.0	 306.0	 0.0	 0.0	 1	 -30.0	 30.0;
	5100	 71	 0.006551	 0.016377	 0.0171	 1625.0	 1625.0	 1625.0	 0.0	 0.0	 1	 -30.0	 30.0;
	3145	 71	 0.025195	 0.07483	 0.0204	 363.0	 363.0	 363.0	 0.0	 0.0	 1	 -30.0	 30.0;
	3746	 72	 9.9e-05	 0.00077	 0.078	 379.0	 379.0	 379.0	 0.0	 0.0	 1	 -30.0	 30.0;
	3746	 73	 9.9e-05	 0.00077	 0.077	 379.0	 379.0	 379.0	 0.0	 0.0	 1	 -30.0	 30.0;
	5108	 74	 0.000514	 0.003437	 0.0061	 290.0	 290.0	 290.0	 0.0	 0.0	 1	 -30.0	 30.0;
	5128	 74	 0.005476	 0.036879	 0.1255	 522.0	 522.0	 522.0	 0.0	 0.0	 1	 -30.0	 30.0;
	145	 74	 0.000514	 0.003457	 0.0061	 418.0	 418.0	 418.0	 0.0	 0.0	 1	 -30.0	 30.0;
	4964	 75	 0.017531	 0.046914	 0.0023	 594.0	 594.0	 594.0	 0.0	 0.0	 1	 -30.0	 30.0;
	2084	 75	 0.005309	 0.014321	 0.0006	 1945.0	 1945.0	 1945.0	 0.0	 0.0	 1	 -30.0	 30.0;
	3082	 76	 0.003477	 0.01118	 0.0187	 304.0	 304.0	 304.0	 0.0	 0.0	 1	 -30.0	 30.0;
	3832	 76	 0.000612	 0.003121	 0.0152	 270.0	 270.0	 270.0	 0.0	 0.0	 1	 -30.0	 30.0;
	2344	 77	 0.013857	 0.035525	 0.0004	 775.0	 775.0	 775.0	 0.0	 0.0	 1	 -30.0	 30.0;
	240	 78	 0.002771	 0.008314	 0.0083	 3471.0	 3471.0	 3471.0	 0.0	 0.0	 1	 -30.0	 30.0;
	4562	 78	 0.000151	 0.000302	 0.0	 90076.0	 90076.0	 90076.0	 0.0	 0.0	 1	 -30.0	 30.0;
	630	 79	 0.010758	 0.02187	 0.0071	 1176.0	 1176.0	 1176.0	 0.0	 0.0	 1	 -30.0	 30.0;
	1871	 79	 0.003779	 0.014613	 0.0198	 1899.0	 1899.0	 1899.0	 0.0	 0.0	 1	 -30.0	 30.0;
	2410	 79	 0.008314	 0.017057	 0.024	 1510.0	 1510.0	 1510.0	 0.0	 0.0	 1	 -30.0	 30.0;
	4077	 79	 0.000252	 0.001764	 0.0043	 16079.0	 16079.0	 16079.0	 0.0	 0.0	 1	 -30.0	 30.0;
	630	 79	 0.010758	 0.02187	 0.0071	 1176.0	 1176.0	 1176.0	 0.0	 0.0	 1	 -30.0	 30.0;
	4076	 79	 0.000302	 0.001562	 0.0037	 18009.0	 18009.0	 18009.0	 0.0	 0.0	 1	 -30.0	 30.0;
	4078	 81	 2.4e-05	 0.000144	 0.0213	 701.0	 701.0	 701.0	 0.0	 0.0	 1	 -30.0	 30.0;
	4078	 80	 7.1e-05	 0.000162	 0.0162	 251.0	 251.0	 251.0	 0.0	 0.0	 1	 -30.0	 30.0;
	680	 82	 0.068027	 0.173091	 0.002	 159.0	 159.0	 159.0	 0.0	 0.0	 1	 -30.0	 30.0;
	803	 82	 0.027211	 0.068783	 0.001	 400.0	 400.0	 400.0	 0.0	 0.0	 1	 -30.0	 30.0;
	2073	 82	 0.03099	 0.202822	 0.002	 145.0	 145.0	 145.0	 0.0	 0.0	 1	 -30.0	 30.0;
	3485	 83	 0.000257	 0.001165	 0.002	 405.0	 405.0	 405.0	 0.0	 0.0	 1	 -30.0	 30.0;
	2129	 84	 0.045603	 0.11741	 0.001	 235.0	 235.0	 235.0	 0.0	 0.0	 1	 -30.0	 30.0;
	3802	 84	 0.008566	 0.024691	 0.0	 1130.0	 1130.0	 1130.0	 0.0	 0.0	 1	 -30.0	 30.0;
	5103	 85	 0.047317	 0.131595	 0.0015	 212.0	 212.0	 212.0	 0.0	 0.0	 1	 -30.0	 30.0;
	2809	 86	 0.040494	 0.128889	 0.0064	 220.0	 220.0	 220.0	 0.0	 0.0	 1	 -30.0	 30.0;
	3511	 86	 0.037778	 0.097037	 0.0045	 286.0	 286.0	 286.0	 0.0	 0.0	 1	 -30.0	 30.0;
	3771	 87	 0.032071	 0.058705	 0.0006	 455.0	 455.0	 455.0	 0.0	 0.0	 1	 -30.0	 30.0;
	4346	 87	 0.062887	 0.204157	 0.002	 143.0	 143.0	 143.0	 0.0	 0.0	 1	 -30.0	 30.0;
	3771	 87	 0.032026	 0.058624	 0.0006	 456.0	 456.0	 456.0	 0.0	 0.0	 1	 -30.0	 30.0;
	1617	 88	 0.075838	 0.224742	 0.0027	 125.0	 125.0	 125.0	 0.0	 0.0	 1	 -30.0	 30.0;
	1706	 88	 0.028471	 0.089695	 0.001	 314.0	 314.0	 314.0	 0.0	 0.0	 1	 -30.0	 30.0;
	3642	 88	 0.080373	 0.255732	 0.003	 111.0	 111.0	 111.0	 0.0	 0.0	 1	 -30.0	 30.0;
	5559	 88	 0.000252	 0.000504	 0.0	 52398.0	 52398.0	 52398.0	 0.0	 0.0	 1	 -30.0	 30.0;
	2496	 89	 0.033531	 0.087235	 0.0166	 325.0	 325.0	 325.0	 0.0	 0.0	 1	 -30.0	 30.0;
...